# CIF file generated by openbabel 3.1.0, see https://openbabel.org
data_I
_chemical_name_common 'MIL-101(Cr)'
_cell_length_a 88.869
_cell_length_b 88.869
_cell_length_c 88.869
_cell_angle_alpha 90
_cell_angle_beta 90
_cell_angle_gamma 90
_space_group_name_H-M_alt 'P 1'
_space_group_name_Hall 'P 1'
loop_
    _symmetry_equiv_pos_as_xyz
    x,y,z
loop_
    _atom_site_label
    _atom_site_type_symbol
    _atom_site_fract_x
    _atom_site_fract_y
    _atom_site_fract_z
    _atom_site_occupancy
    Cr1      Cr       0.09473    0.92799    0.51291    1.000
    Cr2      Cr       0.92908    0.90227    0.82092    1.000
    Cr3      Cr       0.14205    0.35795    0.50000    1.000
    Cr4      Cr       0.12500    0.35421    0.62500    1.000
    Cr5      Cr       0.13618    0.36129    0.88871    1.000
    Cr6      Cr       0.21632    0.21632    0.29932    1.000
    Cr7      Cr       0.32280    0.29246    0.70846    1.000
    O1       O        0.07916    0.07916    0.17085    1.000
    O2       O        0.20004    0.20004    0.29603    1.000
    O3       O        0.12500    0.87633    0.12500    1.000
    O4       O        0.15812    0.34189    0.50000    1.000
    O5       O        0.85869    0.90982    0.93036    1.000
    O6       O        0.32390    0.30587    0.72646    1.000
    O7       O        0.33886    0.32263    0.80070    1.000
    O8       O        0.22122    0.27416    0.82068    1.000
    O9       O        0.21763    0.27195    0.79523    1.000
    O10      O        0.07701    0.92561    0.48044    1.000
    O11      O        0.08776    0.94003    0.49692    1.000
    O12      O        0.08758    0.97279    0.39876    1.000
    O13      O        0.10774    0.97747    0.38451    1.000
    O14      O        0.10125    0.89811    0.37552    1.000
    O15      O        0.12292    0.90693    0.36631    1.000
    O16      O        0.69362    0.94089    0.92195    1.000
    O17      O        0.64839    0.89622    0.87944    1.000
    O18      O        0.18523    0.97624    0.45379    1.000
    O19      O        0.18927    0.96912    0.43055    1.000
    O20      O        0.11692    0.00664    0.42722    1.000
    O21      O        0.12647    0.99662    0.40475    1.000
    O22      O        0.93898    0.88815    0.81102    1.000
    O23      O        0.34415    0.28873    0.71087    1.000
    O24      O        0.26893    0.20642    0.76893    1.000
    O25      O        0.15369    0.35171    0.89829    1.000
    O26      O        0.12500    0.33237    0.62500    1.000
    O27      O        0.12523    0.37477    0.50000    1.000
    O28      O        0.09420    0.94750    0.52526    1.000
    C1       C        0.87950    0.89071    0.93066    1.000
    C2       C        0.14658    0.10341    0.06614    1.000
    C3       C        0.13577    0.11423    0.06680    1.000
    C4       C        0.33163    0.31200    0.75507    1.000
    C5       C        0.18414    0.18414    0.26664    1.000
    C6       C        0.17855    0.17855    0.25298    1.000
    C7       C        0.33506    0.31530    0.77052    1.000
    C8       C        0.17083    0.17083    0.20626    1.000
    C9       C        0.17268    0.17268    0.22215    1.000
    C10      C        0.23623    0.24748    0.79691    1.000
    C11      C        0.22600    0.27033    0.80736    1.000
    C12      C        0.23755    0.25940    0.80736    1.000
    C13      C        0.24506    0.25632    0.82141    1.000
    C14      C        0.07184    0.94769    0.45923    1.000
    C15      C        0.08022    0.93870    0.48456    1.000
    C16      C        0.08111    0.94982    0.47259    1.000
    C17      C        0.09290    0.96067    0.47197    1.000
    C18      C        0.09204    0.94184    0.39347    1.000
    C19      C        0.09671    0.96908    0.38844    1.000
    C20      C        0.09891    0.95404    0.38504    1.000
    C21      C        0.09472    0.92690    0.38883    1.000
    C22      C        0.11030    0.90929    0.37309    1.000
    C23      C        0.10769    0.92411    0.37950    1.000
    C24      C        0.11224    0.95164    0.37746    1.000
    C25      C        0.11582    0.93650    0.37311    1.000
    C26      C        0.69470    0.92660    0.92660    1.000
    C27      C        0.68725    0.91657    0.91657    1.000
    C28      C        0.65361    0.89174    0.89174    1.000
    C29      C        0.66184    0.90196    0.90196    1.000
    C30      C        0.67951    0.92322    0.90471    1.000
    C31      C        0.66801    0.91515    0.89645    1.000
    C32      C        0.15706    0.98645    0.44571    1.000
    C33      C        0.18130    0.97536    0.44016    1.000
    C34      C        0.16789    0.98193    0.43518    1.000
    C35      C        0.14422    0.99383    0.44076    1.000
    C36      C        0.12747    0.99905    0.41918    1.000
    C37      C        0.14175    0.99511    0.42522    1.000
    C38      C        0.16484    0.98154    0.41968    1.000
    C39      C        0.15158    0.98829    0.41458    1.000
    Ow1      O        0.31076    0.28784    0.78784    1.000
    Ow2      O        0.24713    0.20958    0.74713    1.000
    Ow3      O        0.21979    0.25383    0.85500    1.000
    Ow4      O        0.17001    0.95284    0.45284    1.000
    Ow5      O        0.13030    0.90416    0.40416    1.000
    Ow6      O        0.02319    0.77386    0.77386    1.000
    Ow7      O        0.18775    0.34925    0.90075    1.000
    Ow8      O        0.88560    0.88560    0.88560    1.000
    Ow9      O        0.15811    0.32404    0.59189    1.000
    Ow10     O        0.92379    0.92379    0.89878    1.000
    Ow11     O        0.20882    0.37500    0.87500    1.000
    Ow12     O        0.11464    0.96551    0.51497    1.000
    Ow13     O        0.08160    0.92910    0.42910    1.000
    Ow14     O        0.15920    0.95309    0.39261    1.000
    Ow15     O        0.13325    0.97005    0.47005    1.000
    Ow16     O        0.15625    0.98052    0.38115    1.000
    Ow17     O        0.27669    0.27669    0.77669    1.000
    Ow18     O        0.90288    0.90288    0.90288    1.000
    Ow19     O        0.95472    0.87192    0.79528    1.000
    Ow20     O        0.15922    0.35978    0.93520    1.000
    Ow21     O        0.18491    0.02613    0.47574    1.000
    Ow22     O        0.11492    0.98895    0.48895    1.000
    Ow23     O        0.25734    0.23384    0.75734    1.000
    Ow24     O        0.25538    0.39416    0.95330    1.000
    Ow25     O        0.13059    0.95907    0.41889    1.000
    Ow26     O        0.12293    0.94144    0.44144    1.000
    Ow27     O        0.15846    0.15846    0.65847    1.000
    Ow28     O        0.35713    0.28245    0.68784    1.000
    Ow29     O        0.13605    0.93423    0.41093    1.000
    Ow30     O        0.08462    0.38665    0.50000    0.500
    Ow31     O        0.22787    0.37152    0.94974    1.000
    Ow32     O        0.13859    0.33373    0.91627    1.000
    Ow33     O        0.16049    0.06754    0.42418    1.000
    Ow34     O        0.11466    0.06339    0.44263    1.000
    Cr1      Cr       0.65527    0.32201    0.01291    1.000
    Cr1      Cr       0.15527    0.42799    0.23709    1.000
    Cr1      Cr       0.59473    0.82201    0.73709    1.000
    Cr1      Cr       0.51291    0.09473    0.92799    1.000
    Cr1      Cr       0.01291    0.65527    0.32201    1.000
    Cr1      Cr       0.23709    0.15527    0.42799    1.000
    Cr1      Cr       0.73709    0.59473    0.82201    1.000
    Cr1      Cr       0.92799    0.51291    0.09473    1.000
    Cr1      Cr       0.32201    0.01291    0.65527    1.000
    Cr1      Cr       0.42799    0.23709    0.15527    1.000
    Cr1      Cr       0.82201    0.73709    0.59473    1.000
    Cr1      Cr       0.67799    0.34473    0.98709    1.000
    Cr1      Cr       0.07201    0.90527    0.48709    1.000
    Cr1      Cr       0.17799    0.40527    0.26291    1.000
    Cr1      Cr       0.57201    0.84473    0.76291    1.000
    Cr1      Cr       0.84473    0.76291    0.57201    1.000
    Cr1      Cr       0.40527    0.26291    0.17799    1.000
    Cr1      Cr       0.90527    0.48709    0.07201    1.000
    Cr1      Cr       0.34473    0.98709    0.67799    1.000
    Cr1      Cr       0.26291    0.17799    0.40527    1.000
    Cr1      Cr       0.76291    0.57201    0.84473    1.000
    Cr1      Cr       0.98709    0.67799    0.34473    1.000
    Cr1      Cr       0.48709    0.07201    0.90527    1.000
    Cr1      Cr       0.90527    0.07201    0.48709    1.000
    Cr1      Cr       0.34473    0.67799    0.98709    1.000
    Cr1      Cr       0.84473    0.57201    0.76291    1.000
    Cr1      Cr       0.40527    0.17799    0.26291    1.000
    Cr1      Cr       0.48709    0.90527    0.07201    1.000
    Cr1      Cr       0.98709    0.34473    0.67799    1.000
    Cr1      Cr       0.76291    0.84473    0.57201    1.000
    Cr1      Cr       0.26291    0.40527    0.17799    1.000
    Cr1      Cr       0.07201    0.48709    0.90527    1.000
    Cr1      Cr       0.67799    0.98709    0.34473    1.000
    Cr1      Cr       0.57201    0.76291    0.84473    1.000
    Cr1      Cr       0.17799    0.26291    0.40527    1.000
    Cr1      Cr       0.32201    0.65527    0.01291    1.000
    Cr1      Cr       0.92799    0.09473    0.51291    1.000
    Cr1      Cr       0.82201    0.59473    0.73709    1.000
    Cr1      Cr       0.42799    0.15527    0.23709    1.000
    Cr1      Cr       0.15527    0.23709    0.42799    1.000
    Cr1      Cr       0.59473    0.73709    0.82201    1.000
    Cr1      Cr       0.09473    0.51291    0.92799    1.000
    Cr1      Cr       0.65527    0.01291    0.32201    1.000
    Cr1      Cr       0.73709    0.82201    0.59473    1.000
    Cr1      Cr       0.23709    0.42799    0.15527    1.000
    Cr1      Cr       0.01291    0.32201    0.65527    1.000
    Cr1      Cr       0.51291    0.92799    0.09473    1.000
    Cr1      Cr       0.09473    0.42799    0.01291    1.000
    Cr1      Cr       0.65527    0.82201    0.51291    1.000
    Cr1      Cr       0.15527    0.92799    0.73709    1.000
    Cr1      Cr       0.59473    0.32201    0.23709    1.000
    Cr1      Cr       0.51291    0.59473    0.42799    1.000
    Cr1      Cr       0.01291    0.15527    0.82201    1.000
    Cr1      Cr       0.23709    0.65527    0.92799    1.000
    Cr1      Cr       0.73709    0.09473    0.32201    1.000
    Cr1      Cr       0.92799    0.01291    0.59473    1.000
    Cr1      Cr       0.32201    0.51291    0.15527    1.000
    Cr1      Cr       0.42799    0.73709    0.65527    1.000
    Cr1      Cr       0.82201    0.23709    0.09473    1.000
    Cr1      Cr       0.67799    0.84473    0.48709    1.000
    Cr1      Cr       0.07201    0.40527    0.98709    1.000
    Cr1      Cr       0.17799    0.90527    0.76291    1.000
    Cr1      Cr       0.57201    0.34473    0.26291    1.000
    Cr1      Cr       0.84473    0.26291    0.07201    1.000
    Cr1      Cr       0.40527    0.76291    0.67799    1.000
    Cr1      Cr       0.90527    0.98709    0.57201    1.000
    Cr1      Cr       0.34473    0.48709    0.17799    1.000
    Cr1      Cr       0.26291    0.67799    0.90527    1.000
    Cr1      Cr       0.76291    0.07201    0.34473    1.000
    Cr1      Cr       0.98709    0.17799    0.84473    1.000
    Cr1      Cr       0.48709    0.57201    0.40527    1.000
    Cr1      Cr       0.90527    0.57201    0.98709    1.000
    Cr1      Cr       0.34473    0.17799    0.48709    1.000
    Cr1      Cr       0.84473    0.07201    0.26291    1.000
    Cr1      Cr       0.40527    0.67799    0.76291    1.000
    Cr1      Cr       0.48709    0.40527    0.57201    1.000
    Cr1      Cr       0.98709    0.84473    0.17799    1.000
    Cr1      Cr       0.76291    0.34473    0.07201    1.000
    Cr1      Cr       0.26291    0.90527    0.67799    1.000
    Cr1      Cr       0.07201    0.98709    0.40527    1.000
    Cr1      Cr       0.67799    0.48709    0.84473    1.000
    Cr1      Cr       0.57201    0.26291    0.34473    1.000
    Cr1      Cr       0.17799    0.76291    0.90527    1.000
    Cr1      Cr       0.32201    0.15527    0.51291    1.000
    Cr1      Cr       0.92799    0.59473    0.01291    1.000
    Cr1      Cr       0.82201    0.09473    0.23709    1.000
    Cr1      Cr       0.42799    0.65527    0.73709    1.000
    Cr1      Cr       0.15527    0.73709    0.92799    1.000
    Cr1      Cr       0.59473    0.23709    0.32201    1.000
    Cr1      Cr       0.09473    0.01291    0.42799    1.000
    Cr1      Cr       0.65527    0.51291    0.82201    1.000
    Cr1      Cr       0.73709    0.32201    0.09473    1.000
    Cr1      Cr       0.23709    0.92799    0.65527    1.000
    Cr1      Cr       0.01291    0.82201    0.15527    1.000
    Cr1      Cr       0.51291    0.42799    0.59473    1.000
    Cr1      Cr       0.59473    0.92799    0.01291    1.000
    Cr1      Cr       0.15527    0.32201    0.51291    1.000
    Cr1      Cr       0.65527    0.42799    0.73709    1.000
    Cr1      Cr       0.09473    0.82201    0.23709    1.000
    Cr1      Cr       0.01291    0.09473    0.42799    1.000
    Cr1      Cr       0.51291    0.65527    0.82201    1.000
    Cr1      Cr       0.73709    0.15527    0.92799    1.000
    Cr1      Cr       0.23709    0.59473    0.32201    1.000
    Cr1      Cr       0.42799    0.51291    0.59473    1.000
    Cr1      Cr       0.82201    0.01291    0.15527    1.000
    Cr1      Cr       0.92799    0.23709    0.65527    1.000
    Cr1      Cr       0.32201    0.73709    0.09473    1.000
    Cr1      Cr       0.17799    0.34473    0.48709    1.000
    Cr1      Cr       0.57201    0.90527    0.98709    1.000
    Cr1      Cr       0.67799    0.40527    0.76291    1.000
    Cr1      Cr       0.07201    0.84473    0.26291    1.000
    Cr1      Cr       0.34473    0.76291    0.07201    1.000
    Cr1      Cr       0.90527    0.26291    0.67799    1.000
    Cr1      Cr       0.40527    0.48709    0.57201    1.000
    Cr1      Cr       0.84473    0.98709    0.17799    1.000
    Cr1      Cr       0.76291    0.17799    0.90527    1.000
    Cr1      Cr       0.26291    0.57201    0.34473    1.000
    Cr1      Cr       0.48709    0.67799    0.84473    1.000
    Cr1      Cr       0.98709    0.07201    0.40527    1.000
    Cr1      Cr       0.40527    0.07201    0.98709    1.000
    Cr1      Cr       0.84473    0.67799    0.48709    1.000
    Cr1      Cr       0.34473    0.57201    0.26291    1.000
    Cr1      Cr       0.90527    0.17799    0.76291    1.000
    Cr1      Cr       0.98709    0.90527    0.57201    1.000
    Cr1      Cr       0.48709    0.34473    0.17799    1.000
    Cr1      Cr       0.26291    0.84473    0.07201    1.000
    Cr1      Cr       0.76291    0.40527    0.67799    1.000
    Cr1      Cr       0.57201    0.48709    0.40527    1.000
    Cr1      Cr       0.17799    0.98709    0.84473    1.000
    Cr1      Cr       0.07201    0.76291    0.34473    1.000
    Cr1      Cr       0.67799    0.26291    0.90527    1.000
    Cr1      Cr       0.82201    0.65527    0.51291    1.000
    Cr1      Cr       0.42799    0.09473    0.01291    1.000
    Cr1      Cr       0.32201    0.59473    0.23709    1.000
    Cr1      Cr       0.92799    0.15527    0.73709    1.000
    Cr1      Cr       0.65527    0.23709    0.92799    1.000
    Cr1      Cr       0.09473    0.73709    0.32201    1.000
    Cr1      Cr       0.59473    0.51291    0.42799    1.000
    Cr1      Cr       0.15527    0.01291    0.82201    1.000
    Cr1      Cr       0.23709    0.82201    0.09473    1.000
    Cr1      Cr       0.73709    0.42799    0.65527    1.000
    Cr1      Cr       0.51291    0.32201    0.15527    1.000
    Cr1      Cr       0.01291    0.92799    0.59473    1.000
    Cr1      Cr       0.59473    0.42799    0.51291    1.000
    Cr1      Cr       0.15527    0.82201    0.01291    1.000
    Cr1      Cr       0.65527    0.92799    0.23709    1.000
    Cr1      Cr       0.09473    0.32201    0.73709    1.000
    Cr1      Cr       0.01291    0.59473    0.92799    1.000
    Cr1      Cr       0.51291    0.15527    0.32201    1.000
    Cr1      Cr       0.73709    0.65527    0.42799    1.000
    Cr1      Cr       0.23709    0.09473    0.82201    1.000
    Cr1      Cr       0.42799    0.01291    0.09473    1.000
    Cr1      Cr       0.82201    0.51291    0.65527    1.000
    Cr1      Cr       0.92799    0.73709    0.15527    1.000
    Cr1      Cr       0.32201    0.23709    0.59473    1.000
    Cr1      Cr       0.17799    0.84473    0.98709    1.000
    Cr1      Cr       0.57201    0.40527    0.48709    1.000
    Cr1      Cr       0.67799    0.90527    0.26291    1.000
    Cr1      Cr       0.07201    0.34473    0.76291    1.000
    Cr1      Cr       0.34473    0.26291    0.57201    1.000
    Cr1      Cr       0.90527    0.76291    0.17799    1.000
    Cr1      Cr       0.40527    0.98709    0.07201    1.000
    Cr1      Cr       0.84473    0.48709    0.67799    1.000
    Cr1      Cr       0.76291    0.67799    0.40527    1.000
    Cr1      Cr       0.26291    0.07201    0.84473    1.000
    Cr1      Cr       0.48709    0.17799    0.34473    1.000
    Cr1      Cr       0.98709    0.57201    0.90527    1.000
    Cr1      Cr       0.40527    0.57201    0.48709    1.000
    Cr1      Cr       0.84473    0.17799    0.98709    1.000
    Cr1      Cr       0.34473    0.07201    0.76291    1.000
    Cr1      Cr       0.90527    0.67799    0.26291    1.000
    Cr1      Cr       0.98709    0.40527    0.07201    1.000
    Cr1      Cr       0.48709    0.84473    0.67799    1.000
    Cr1      Cr       0.26291    0.34473    0.57201    1.000
    Cr1      Cr       0.76291    0.90527    0.17799    1.000
    Cr1      Cr       0.57201    0.98709    0.90527    1.000
    Cr1      Cr       0.17799    0.48709    0.34473    1.000
    Cr1      Cr       0.07201    0.26291    0.84473    1.000
    Cr1      Cr       0.67799    0.76291    0.40527    1.000
    Cr1      Cr       0.82201    0.15527    0.01291    1.000
    Cr1      Cr       0.42799    0.59473    0.51291    1.000
    Cr1      Cr       0.32201    0.09473    0.73709    1.000
    Cr1      Cr       0.92799    0.65527    0.23709    1.000
    Cr1      Cr       0.65527    0.73709    0.42799    1.000
    Cr1      Cr       0.09473    0.23709    0.82201    1.000
    Cr1      Cr       0.59473    0.01291    0.92799    1.000
    Cr1      Cr       0.15527    0.51291    0.32201    1.000
    Cr1      Cr       0.23709    0.32201    0.59473    1.000
    Cr1      Cr       0.73709    0.92799    0.15527    1.000
    Cr1      Cr       0.51291    0.82201    0.65527    1.000
    Cr1      Cr       0.01291    0.42799    0.09473    1.000
    Cr2      Cr       0.82092    0.34773    0.32092    1.000
    Cr2      Cr       0.32092    0.40227    0.92908    1.000
    Cr2      Cr       0.42908    0.84773    0.42908    1.000
    Cr2      Cr       0.82092    0.92908    0.90227    1.000
    Cr2      Cr       0.32092    0.82092    0.34773    1.000
    Cr2      Cr       0.92908    0.32092    0.40227    1.000
    Cr2      Cr       0.42908    0.42908    0.84773    1.000
    Cr2      Cr       0.90227    0.82092    0.92908    1.000
    Cr2      Cr       0.34773    0.32092    0.82092    1.000
    Cr2      Cr       0.40227    0.92908    0.32092    1.000
    Cr2      Cr       0.84773    0.42908    0.42908    1.000
    Cr2      Cr       0.65227    0.17908    0.67908    1.000
    Cr2      Cr       0.09773    0.07092    0.17908    1.000
    Cr2      Cr       0.15227    0.57092    0.57092    1.000
    Cr2      Cr       0.59773    0.67908    0.07092    1.000
    Cr2      Cr       0.67908    0.07092    0.59773    1.000
    Cr2      Cr       0.57092    0.57092    0.15227    1.000
    Cr2      Cr       0.07092    0.17908    0.09773    1.000
    Cr2      Cr       0.17908    0.67908    0.65227    1.000
    Cr2      Cr       0.57092    0.15227    0.57092    1.000
    Cr2      Cr       0.07092    0.59773    0.67908    1.000
    Cr2      Cr       0.67908    0.65227    0.17908    1.000
    Cr2      Cr       0.17908    0.09773    0.07092    1.000
    Cr2      Cr       0.07092    0.09773    0.17908    1.000
    Cr2      Cr       0.17908    0.65227    0.67908    1.000
    Cr2      Cr       0.67908    0.59773    0.07092    1.000
    Cr2      Cr       0.17908    0.07092    0.09773    1.000
    Cr2      Cr       0.67908    0.17908    0.65227    1.000
    Cr2      Cr       0.07092    0.67908    0.59773    1.000
    Cr2      Cr       0.09773    0.17908    0.07092    1.000
    Cr2      Cr       0.65227    0.67908    0.17908    1.000
    Cr2      Cr       0.59773    0.07092    0.67908    1.000
    Cr2      Cr       0.34773    0.82092    0.32092    1.000
    Cr2      Cr       0.90227    0.92908    0.82092    1.000
    Cr2      Cr       0.40227    0.32092    0.92908    1.000
    Cr2      Cr       0.32092    0.92908    0.40227    1.000
    Cr2      Cr       0.92908    0.82092    0.90227    1.000
    Cr2      Cr       0.82092    0.32092    0.34773    1.000
    Cr2      Cr       0.92908    0.40227    0.32092    1.000
    Cr2      Cr       0.32092    0.34773    0.82092    1.000
    Cr2      Cr       0.82092    0.90227    0.92908    1.000
    Cr2      Cr       0.82092    0.84773    0.82092    1.000
    Cr2      Cr       0.32092    0.90227    0.42908    1.000
    Cr2      Cr       0.42908    0.34773    0.92908    1.000
    Cr2      Cr       0.82092    0.42908    0.40227    1.000
    Cr2      Cr       0.32092    0.32092    0.84773    1.000
    Cr2      Cr       0.42908    0.92908    0.34773    1.000
    Cr2      Cr       0.90227    0.32092    0.42908    1.000
    Cr2      Cr       0.40227    0.42908    0.82092    1.000
    Cr2      Cr       0.84773    0.92908    0.92908    1.000
    Cr2      Cr       0.09773    0.57092    0.67908    1.000
    Cr2      Cr       0.15227    0.07092    0.07092    1.000
    Cr2      Cr       0.59773    0.17908    0.57092    1.000
    Cr2      Cr       0.67908    0.57092    0.09773    1.000
    Cr2      Cr       0.57092    0.07092    0.65227    1.000
    Cr2      Cr       0.17908    0.17908    0.15227    1.000
    Cr2      Cr       0.57092    0.65227    0.07092    1.000
    Cr2      Cr       0.67908    0.15227    0.67908    1.000
    Cr2      Cr       0.17908    0.59773    0.57092    1.000
    Cr2      Cr       0.17908    0.15227    0.17908    1.000
    Cr2      Cr       0.67908    0.09773    0.57092    1.000
    Cr2      Cr       0.17908    0.57092    0.59773    1.000
    Cr2      Cr       0.67908    0.67908    0.15227    1.000
    Cr2      Cr       0.09773    0.67908    0.57092    1.000
    Cr2      Cr       0.59773    0.57092    0.17908    1.000
    Cr2      Cr       0.90227    0.42908    0.32092    1.000
    Cr2      Cr       0.40227    0.82092    0.42908    1.000
    Cr2      Cr       0.32092    0.42908    0.90227    1.000
    Cr2      Cr       0.82092    0.82092    0.84773    1.000
    Cr2      Cr       0.32092    0.84773    0.32092    1.000
    Cr2      Cr       0.82092    0.40227    0.42908    1.000
    Cr2      Cr       0.42908    0.90227    0.32092    1.000
    Cr2      Cr       0.92908    0.84773    0.92908    1.000
    Cr2      Cr       0.42908    0.32092    0.90227    1.000
    Cr2      Cr       0.92908    0.42908    0.34773    1.000
    Cr2      Cr       0.84773    0.32092    0.32092    1.000
    Cr2      Cr       0.34773    0.42908    0.92908    1.000
    Cr2      Cr       0.15227    0.17908    0.17908    1.000
    Cr2      Cr       0.65227    0.57092    0.07092    1.000
    Cr2      Cr       0.07092    0.57092    0.65227    1.000
    Cr2      Cr       0.57092    0.17908    0.59773    1.000
    Cr2      Cr       0.07092    0.15227    0.07092    1.000
    Cr2      Cr       0.57092    0.59773    0.17908    1.000
    Cr2      Cr       0.57092    0.09773    0.67908    1.000
    Cr2      Cr       0.57092    0.67908    0.09773    1.000
    Cr2      Cr       0.15227    0.67908    0.67908    1.000
    Cr2      Cr       0.84773    0.82092    0.82092    1.000
    Cr2      Cr       0.42908    0.82092    0.40227    1.000
    Cr2      Cr       0.42908    0.40227    0.82092    1.000
    Cr2      Cr       0.92908    0.34773    0.42908    1.000
    Cr2      Cr       0.92908    0.92908    0.84773    1.000
    Cr2      Cr       0.34773    0.92908    0.42908    1.000
    Cr2      Cr       0.65227    0.07092    0.57092    1.000
    Cr2      Cr       0.07092    0.07092    0.15227    1.000
    Cr2      Cr       0.07092    0.65227    0.57092    1.000
    Cr3      Cr       0.60795    0.89205    0.00000    1.000
    Cr3      Cr       0.10795    0.85795    0.25000    1.000
    Cr3      Cr       0.64205    0.39205    0.75000    1.000
    Cr3      Cr       0.50000    0.14205    0.35795    1.000
    Cr3      Cr       0.00000    0.60795    0.89205    1.000
    Cr3      Cr       0.25000    0.10795    0.85795    1.000
    Cr3      Cr       0.75000    0.64205    0.39205    1.000
    Cr3      Cr       0.35795    0.50000    0.14205    1.000
    Cr3      Cr       0.89205    0.00000    0.60795    1.000
    Cr3      Cr       0.85795    0.25000    0.10795    1.000
    Cr3      Cr       0.39205    0.75000    0.64205    1.000
    Cr3      Cr       0.10795    0.39205    0.00000    1.000
    Cr3      Cr       0.64205    0.85795    0.50000    1.000
    Cr3      Cr       0.60795    0.35795    0.25000    1.000
    Cr3      Cr       0.14205    0.89205    0.75000    1.000
    Cr3      Cr       0.89205    0.75000    0.14205    1.000
    Cr3      Cr       0.35795    0.25000    0.60795    1.000
    Cr3      Cr       0.85795    0.50000    0.64205    1.000
    Cr3      Cr       0.39205    0.00000    0.10795    1.000
    Cr3      Cr       0.25000    0.60795    0.35795    1.000
    Cr3      Cr       0.75000    0.14205    0.89205    1.000
    Cr3      Cr       0.00000    0.10795    0.39205    1.000
    Cr3      Cr       0.50000    0.64205    0.85795    1.000
    Cr3      Cr       0.85795    0.64205    0.50000    1.000
    Cr3      Cr       0.39205    0.10795    0.00000    1.000
    Cr3      Cr       0.89205    0.14205    0.75000    1.000
    Cr3      Cr       0.35795    0.60795    0.25000    1.000
    Cr3      Cr       0.50000    0.85795    0.64205    1.000
    Cr3      Cr       0.00000    0.39205    0.10795    1.000
    Cr3      Cr       0.75000    0.89205    0.14205    1.000
    Cr3      Cr       0.25000    0.35795    0.60795    1.000
    Cr3      Cr       0.64205    0.50000    0.85795    1.000
    Cr3      Cr       0.10795    0.00000    0.39205    1.000
    Cr3      Cr       0.14205    0.75000    0.89205    1.000
    Cr3      Cr       0.60795    0.25000    0.35795    1.000
    Cr3      Cr       0.89205    0.60795    0.00000    1.000
    Cr3      Cr       0.35795    0.14205    0.50000    1.000
    Cr3      Cr       0.39205    0.64205    0.75000    1.000
    Cr3      Cr       0.85795    0.10795    0.25000    1.000
    Cr3      Cr       0.10795    0.25000    0.85795    1.000
    Cr3      Cr       0.64205    0.75000    0.39205    1.000
    Cr3      Cr       0.14205    0.50000    0.35795    1.000
    Cr3      Cr       0.60795    0.00000    0.89205    1.000
    Cr3      Cr       0.75000    0.39205    0.64205    1.000
    Cr3      Cr       0.25000    0.85795    0.10795    1.000
    Cr3      Cr       0.00000    0.89205    0.60795    1.000
    Cr3      Cr       0.50000    0.35795    0.14205    1.000
    Cr3      Cr       0.14205    0.85795    0.00000    1.000
    Cr3      Cr       0.60795    0.39205    0.50000    1.000
    Cr3      Cr       0.10795    0.35795    0.75000    1.000
    Cr3      Cr       0.64205    0.89205    0.25000    1.000
    Cr3      Cr       0.35795    0.00000    0.64205    1.000
    Cr3      Cr       0.89205    0.50000    0.10795    1.000
    Cr3      Cr       0.85795    0.75000    0.60795    1.000
    Cr3      Cr       0.39205    0.25000    0.14205    1.000
    Cr3      Cr       0.10795    0.89205    0.50000    1.000
    Cr3      Cr       0.64205    0.35795    0.00000    1.000
    Cr3      Cr       0.60795    0.85795    0.75000    1.000
    Cr3      Cr       0.14205    0.39205    0.25000    1.000
    Cr3      Cr       0.89205    0.25000    0.64205    1.000
    Cr3      Cr       0.35795    0.75000    0.10795    1.000
    Cr3      Cr       0.85795    0.00000    0.14205    1.000
    Cr3      Cr       0.39205    0.50000    0.60795    1.000
    Cr3      Cr       0.85795    0.14205    0.00000    1.000
    Cr3      Cr       0.39205    0.60795    0.50000    1.000
    Cr3      Cr       0.89205    0.64205    0.25000    1.000
    Cr3      Cr       0.35795    0.10795    0.75000    1.000
    Cr3      Cr       0.64205    0.00000    0.35795    1.000
    Cr3      Cr       0.10795    0.50000    0.89205    1.000
    Cr3      Cr       0.14205    0.25000    0.39205    1.000
    Cr3      Cr       0.60795    0.75000    0.85795    1.000
    Cr3      Cr       0.89205    0.10795    0.50000    1.000
    Cr3      Cr       0.35795    0.64205    0.00000    1.000
    Cr3      Cr       0.39205    0.14205    0.25000    1.000
    Cr3      Cr       0.85795    0.60795    0.75000    1.000
    Cr3      Cr       0.10795    0.75000    0.35795    1.000
    Cr3      Cr       0.64205    0.25000    0.89205    1.000
    Cr3      Cr       0.14205    0.00000    0.85795    1.000
    Cr3      Cr       0.60795    0.50000    0.39205    1.000
    Cr3      Cr       0.00000    0.14205    0.85795    1.000
    Cr3      Cr       0.50000    0.60795    0.39205    1.000
    Cr3      Cr       0.75000    0.10795    0.35795    1.000
    Cr3      Cr       0.25000    0.64205    0.89205    1.000
    Cr3      Cr       0.75000    0.60795    0.85795    1.000
    Cr3      Cr       0.25000    0.14205    0.39205    1.000
    Cr3      Cr       0.50000    0.10795    0.89205    1.000
    Cr3      Cr       0.00000    0.64205    0.35795    1.000
    Cr3      Cr       0.00000    0.85795    0.14205    1.000
    Cr3      Cr       0.50000    0.39205    0.60795    1.000
    Cr3      Cr       0.25000    0.89205    0.64205    1.000
    Cr3      Cr       0.75000    0.35795    0.10795    1.000
    Cr3      Cr       0.25000    0.39205    0.14205    1.000
    Cr3      Cr       0.75000    0.85795    0.60795    1.000
    Cr3      Cr       0.50000    0.89205    0.10795    1.000
    Cr3      Cr       0.00000    0.35795    0.64205    1.000
    Cr4      Cr       0.62500    0.89579    0.12500    1.000
    Cr4      Cr       0.12500    0.85421    0.12500    1.000
    Cr4      Cr       0.62500    0.39579    0.62500    1.000
    Cr4      Cr       0.62500    0.12500    0.35421    1.000
    Cr4      Cr       0.12500    0.62500    0.89579    1.000
    Cr4      Cr       0.12500    0.12500    0.85421    1.000
    Cr4      Cr       0.62500    0.62500    0.39579    1.000
    Cr4      Cr       0.35421    0.62500    0.12500    1.000
    Cr4      Cr       0.89579    0.12500    0.62500    1.000
    Cr4      Cr       0.85421    0.12500    0.12500    1.000
    Cr4      Cr       0.39579    0.62500    0.62500    1.000
    Cr4      Cr       0.10421    0.37500    0.87500    1.000
    Cr4      Cr       0.64579    0.87500    0.37500    1.000
    Cr4      Cr       0.60421    0.37500    0.37500    1.000
    Cr4      Cr       0.14579    0.87500    0.87500    1.000
    Cr4      Cr       0.87500    0.87500    0.14579    1.000
    Cr4      Cr       0.37500    0.37500    0.60421    1.000
    Cr4      Cr       0.87500    0.37500    0.64579    1.000
    Cr4      Cr       0.37500    0.87500    0.10421    1.000
    Cr4      Cr       0.37500    0.60421    0.37500    1.000
    Cr4      Cr       0.87500    0.14579    0.87500    1.000
    Cr4      Cr       0.87500    0.10421    0.37500    1.000
    Cr4      Cr       0.37500    0.64579    0.87500    1.000
    Cr4      Cr       0.87500    0.64579    0.37500    1.000
    Cr4      Cr       0.37500    0.10421    0.87500    1.000
    Cr4      Cr       0.37500    0.87500    0.64579    1.000
    Cr4      Cr       0.87500    0.37500    0.10421    1.000
    Cr4      Cr       0.64579    0.37500    0.87500    1.000
    Cr4      Cr       0.10421    0.87500    0.37500    1.000
    Cr4      Cr       0.89579    0.62500    0.12500    1.000
    Cr4      Cr       0.35421    0.12500    0.62500    1.000
    Cr4      Cr       0.12500    0.62500    0.35421    1.000
    Cr4      Cr       0.62500    0.12500    0.89579    1.000
    Cr4      Cr       0.12500    0.89579    0.62500    1.000
    Cr4      Cr       0.62500    0.35421    0.12500    1.000
    Cr4      Cr       0.62500    0.62500    0.85421    1.000
    Cr4      Cr       0.12500    0.12500    0.39579    1.000
    Cr4      Cr       0.85421    0.62500    0.62500    1.000
    Cr4      Cr       0.39579    0.12500    0.12500    1.000
    Cr4      Cr       0.60421    0.87500    0.87500    1.000
    Cr4      Cr       0.14579    0.37500    0.37500    1.000
    Cr4      Cr       0.87500    0.60421    0.87500    1.000
    Cr4      Cr       0.37500    0.14579    0.37500    1.000
    Cr4      Cr       0.37500    0.37500    0.14579    1.000
    Cr4      Cr       0.87500    0.87500    0.60421    1.000
    Cr4      Cr       0.12500    0.39579    0.12500    1.000
    Cr4      Cr       0.62500    0.85421    0.62500    1.000
    Cr5      Cr       0.61382    0.88871    0.38871    1.000
    Cr5      Cr       0.11382    0.86129    0.86129    1.000
    Cr5      Cr       0.63618    0.38871    0.36129    1.000
    Cr5      Cr       0.88871    0.13618    0.36129    1.000
    Cr5      Cr       0.38871    0.61382    0.88871    1.000
    Cr5      Cr       0.86129    0.11382    0.86129    1.000
    Cr5      Cr       0.36129    0.63618    0.38871    1.000
    Cr5      Cr       0.36129    0.88871    0.13618    1.000
    Cr5      Cr       0.88871    0.38871    0.61382    1.000
    Cr5      Cr       0.86129    0.86129    0.11382    1.000
    Cr5      Cr       0.38871    0.36129    0.63618    1.000
    Cr5      Cr       0.11129    0.38618    0.61129    1.000
    Cr5      Cr       0.63871    0.86382    0.11129    1.000
    Cr5      Cr       0.61129    0.36382    0.63871    1.000
    Cr5      Cr       0.13871    0.88618    0.13871    1.000
    Cr5      Cr       0.88618    0.13871    0.13871    1.000
    Cr5      Cr       0.36382    0.63871    0.61129    1.000
    Cr5      Cr       0.86382    0.11129    0.63871    1.000
    Cr5      Cr       0.38618    0.61129    0.11129    1.000
    Cr5      Cr       0.63871    0.61129    0.36382    1.000
    Cr5      Cr       0.13871    0.13871    0.88618    1.000
    Cr5      Cr       0.61129    0.11129    0.38618    1.000
    Cr5      Cr       0.11129    0.63871    0.86382    1.000
    Cr5      Cr       0.86382    0.63871    0.11129    1.000
    Cr5      Cr       0.38618    0.11129    0.61129    1.000
    Cr5      Cr       0.36382    0.61129    0.63871    1.000
    Cr5      Cr       0.11129    0.86382    0.63871    1.000
    Cr5      Cr       0.61129    0.38618    0.11129    1.000
    Cr5      Cr       0.63871    0.36382    0.61129    1.000
    Cr5      Cr       0.63871    0.11129    0.86382    1.000
    Cr5      Cr       0.11129    0.61129    0.38618    1.000
    Cr5      Cr       0.61129    0.63871    0.36382    1.000
    Cr5      Cr       0.88871    0.61382    0.38871    1.000
    Cr5      Cr       0.36129    0.13618    0.88871    1.000
    Cr5      Cr       0.38871    0.63618    0.36129    1.000
    Cr5      Cr       0.63618    0.36129    0.38871    1.000
    Cr5      Cr       0.13618    0.88871    0.36129    1.000
    Cr5      Cr       0.61382    0.38871    0.88871    1.000
    Cr5      Cr       0.36129    0.38871    0.63618    1.000
    Cr5      Cr       0.38871    0.88871    0.61382    1.000
    Cr5      Cr       0.88871    0.36129    0.13618    1.000
    Cr5      Cr       0.13618    0.86129    0.38871    1.000
    Cr5      Cr       0.11382    0.36129    0.36129    1.000
    Cr5      Cr       0.63618    0.88871    0.86129    1.000
    Cr5      Cr       0.88871    0.63618    0.86129    1.000
    Cr5      Cr       0.38871    0.11382    0.38871    1.000
    Cr5      Cr       0.86129    0.61382    0.36129    1.000
    Cr5      Cr       0.88871    0.88871    0.11382    1.000
    Cr5      Cr       0.86129    0.36129    0.61382    1.000
    Cr5      Cr       0.38871    0.86129    0.13618    1.000
    Cr5      Cr       0.11129    0.88618    0.11129    1.000
    Cr5      Cr       0.61129    0.86382    0.13871    1.000
    Cr5      Cr       0.13871    0.38618    0.63871    1.000
    Cr5      Cr       0.88618    0.63871    0.63871    1.000
    Cr5      Cr       0.36382    0.13871    0.11129    1.000
    Cr5      Cr       0.86382    0.61129    0.13871    1.000
    Cr5      Cr       0.13871    0.63871    0.38618    1.000
    Cr5      Cr       0.61129    0.61129    0.88618    1.000
    Cr5      Cr       0.11129    0.13871    0.36382    1.000
    Cr5      Cr       0.86382    0.13871    0.61129    1.000
    Cr5      Cr       0.36382    0.11129    0.13871    1.000
    Cr5      Cr       0.11129    0.36382    0.13871    1.000
    Cr5      Cr       0.61129    0.88618    0.61129    1.000
    Cr5      Cr       0.11129    0.11129    0.88618    1.000
    Cr5      Cr       0.61129    0.13871    0.86382    1.000
    Cr5      Cr       0.88871    0.11382    0.88871    1.000
    Cr5      Cr       0.38871    0.13618    0.86129    1.000
    Cr5      Cr       0.63618    0.86129    0.88871    1.000
    Cr5      Cr       0.13618    0.38871    0.86129    1.000
    Cr5      Cr       0.38871    0.38871    0.11382    1.000
    Cr5      Cr       0.88871    0.86129    0.63618    1.000
    Cr5      Cr       0.11382    0.88871    0.88871    1.000
    Cr5      Cr       0.61382    0.86129    0.36129    1.000
    Cr5      Cr       0.36129    0.11382    0.36129    1.000
    Cr5      Cr       0.86129    0.63618    0.88871    1.000
    Cr5      Cr       0.86129    0.88871    0.63618    1.000
    Cr5      Cr       0.36129    0.86129    0.61382    1.000
    Cr5      Cr       0.13871    0.86382    0.61129    1.000
    Cr5      Cr       0.63871    0.88618    0.63871    1.000
    Cr5      Cr       0.38618    0.13871    0.63871    1.000
    Cr5      Cr       0.88618    0.61129    0.61129    1.000
    Cr5      Cr       0.13871    0.61129    0.86382    1.000
    Cr5      Cr       0.63871    0.13871    0.38618    1.000
    Cr5      Cr       0.88618    0.11129    0.11129    1.000
    Cr5      Cr       0.13871    0.36382    0.11129    1.000
    Cr5      Cr       0.13871    0.11129    0.36382    1.000
    Cr5      Cr       0.86129    0.13618    0.38871    1.000
    Cr5      Cr       0.11382    0.38871    0.38871    1.000
    Cr5      Cr       0.86129    0.38871    0.13618    1.000
    Cr5      Cr       0.61382    0.36129    0.86129    1.000
    Cr5      Cr       0.36129    0.61382    0.86129    1.000
    Cr5      Cr       0.36129    0.36129    0.11382    1.000
    Cr5      Cr       0.63871    0.38618    0.13871    1.000
    Cr5      Cr       0.38618    0.63871    0.13871    1.000
    Cr5      Cr       0.63871    0.63871    0.88618    1.000
    Cr6      Cr       0.53368    0.03368    0.79932    1.000
    Cr6      Cr       0.03368    0.71632    0.45068    1.000
    Cr6      Cr       0.71632    0.53368    0.95068    1.000
    Cr6      Cr       0.29932    0.21632    0.21632    1.000
    Cr6      Cr       0.79932    0.53368    0.03368    1.000
    Cr6      Cr       0.45068    0.03368    0.71632    1.000
    Cr6      Cr       0.95068    0.71632    0.53368    1.000
    Cr6      Cr       0.21632    0.29932    0.21632    1.000
    Cr6      Cr       0.03368    0.79932    0.53368    1.000
    Cr6      Cr       0.71632    0.45068    0.03368    1.000
    Cr6      Cr       0.53368    0.95068    0.71632    1.000
    Cr6      Cr       0.96632    0.46632    0.20068    1.000
    Cr6      Cr       0.78368    0.78368    0.70068    1.000
    Cr6      Cr       0.46632    0.28368    0.04932    1.000
    Cr6      Cr       0.28368    0.96632    0.54932    1.000
    Cr6      Cr       0.96632    0.54932    0.28368    1.000
    Cr6      Cr       0.28368    0.04932    0.46632    1.000
    Cr6      Cr       0.78368    0.70068    0.78368    1.000
    Cr6      Cr       0.46632    0.20068    0.96632    1.000
    Cr6      Cr       0.04932    0.46632    0.28368    1.000
    Cr6      Cr       0.54932    0.28368    0.96632    1.000
    Cr6      Cr       0.20068    0.96632    0.46632    1.000
    Cr6      Cr       0.70068    0.78368    0.78368    1.000
    Cr6      Cr       0.46632    0.96632    0.20068    1.000
    Cr6      Cr       0.96632    0.28368    0.54932    1.000
    Cr6      Cr       0.28368    0.46632    0.04932    1.000
    Cr6      Cr       0.20068    0.46632    0.96632    1.000
    Cr6      Cr       0.54932    0.96632    0.28368    1.000
    Cr6      Cr       0.04932    0.28368    0.46632    1.000
    Cr6      Cr       0.96632    0.20068    0.46632    1.000
    Cr6      Cr       0.28368    0.54932    0.96632    1.000
    Cr6      Cr       0.46632    0.04932    0.28368    1.000
    Cr6      Cr       0.03368    0.53368    0.79932    1.000
    Cr6      Cr       0.53368    0.71632    0.95068    1.000
    Cr6      Cr       0.71632    0.03368    0.45068    1.000
    Cr6      Cr       0.03368    0.45068    0.71632    1.000
    Cr6      Cr       0.71632    0.95068    0.53368    1.000
    Cr6      Cr       0.53368    0.79932    0.03368    1.000
    Cr6      Cr       0.95068    0.53368    0.71632    1.000
    Cr6      Cr       0.45068    0.71632    0.03368    1.000
    Cr6      Cr       0.79932    0.03368    0.53368    1.000
    Cr6      Cr       0.21632    0.71632    0.79932    1.000
    Cr6      Cr       0.53368    0.53368    0.29932    1.000
    Cr6      Cr       0.03368    0.21632    0.95068    1.000
    Cr6      Cr       0.29932    0.71632    0.71632    1.000
    Cr6      Cr       0.45068    0.53368    0.21632    1.000
    Cr6      Cr       0.95068    0.21632    0.03368    1.000
    Cr6      Cr       0.21632    0.79932    0.71632    1.000
    Cr6      Cr       0.03368    0.29932    0.03368    1.000
    Cr6      Cr       0.53368    0.45068    0.21632    1.000
    Cr6      Cr       0.96632    0.96632    0.70068    1.000
    Cr6      Cr       0.78368    0.28368    0.20068    1.000
    Cr6      Cr       0.46632    0.78368    0.54932    1.000
    Cr6      Cr       0.96632    0.04932    0.78368    1.000
    Cr6      Cr       0.78368    0.20068    0.28368    1.000
    Cr6      Cr       0.46632    0.70068    0.46632    1.000
    Cr6      Cr       0.04932    0.96632    0.78368    1.000
    Cr6      Cr       0.54932    0.78368    0.46632    1.000
    Cr6      Cr       0.70068    0.28368    0.28368    1.000
    Cr6      Cr       0.46632    0.46632    0.70068    1.000
    Cr6      Cr       0.96632    0.78368    0.04932    1.000
    Cr6      Cr       0.54932    0.46632    0.78368    1.000
    Cr6      Cr       0.04932    0.78368    0.96632    1.000
    Cr6      Cr       0.96632    0.70068    0.96632    1.000
    Cr6      Cr       0.46632    0.54932    0.78368    1.000
    Cr6      Cr       0.03368    0.03368    0.29932    1.000
    Cr6      Cr       0.53368    0.21632    0.45068    1.000
    Cr6      Cr       0.03368    0.95068    0.21632    1.000
    Cr6      Cr       0.53368    0.29932    0.53368    1.000
    Cr6      Cr       0.95068    0.03368    0.21632    1.000
    Cr6      Cr       0.45068    0.21632    0.53368    1.000
    Cr6      Cr       0.71632    0.21632    0.79932    1.000
    Cr6      Cr       0.21632    0.53368    0.45068    1.000
    Cr6      Cr       0.79932    0.21632    0.71632    1.000
    Cr6      Cr       0.29932    0.53368    0.53368    1.000
    Cr6      Cr       0.71632    0.29932    0.71632    1.000
    Cr6      Cr       0.21632    0.45068    0.53368    1.000
    Cr6      Cr       0.28368    0.78368    0.20068    1.000
    Cr6      Cr       0.78368    0.96632    0.04932    1.000
    Cr6      Cr       0.78368    0.04932    0.96632    1.000
    Cr6      Cr       0.28368    0.70068    0.28368    1.000
    Cr6      Cr       0.70068    0.96632    0.96632    1.000
    Cr6      Cr       0.20068    0.78368    0.28368    1.000
    Cr6      Cr       0.78368    0.46632    0.54932    1.000
    Cr6      Cr       0.70068    0.46632    0.46632    1.000
    Cr6      Cr       0.78368    0.54932    0.46632    1.000
    Cr6      Cr       0.21632    0.03368    0.95068    1.000
    Cr6      Cr       0.21632    0.95068    0.03368    1.000
    Cr6      Cr       0.29932    0.03368    0.03368    1.000
    Cr6      Cr       0.71632    0.71632    0.29932    1.000
    Cr6      Cr       0.79932    0.71632    0.21632    1.000
    Cr6      Cr       0.71632    0.79932    0.21632    1.000
    Cr6      Cr       0.28368    0.28368    0.70068    1.000
    Cr6      Cr       0.28368    0.20068    0.78368    1.000
    Cr6      Cr       0.20068    0.28368    0.78368    1.000
    Cr7      Cr       0.42720    0.95754    0.20846    1.000
    Cr7      Cr       0.92720    0.79246    0.04154    1.000
    Cr7      Cr       0.82280    0.45754    0.54154    1.000
    Cr7      Cr       0.70846    0.32280    0.29246    1.000
    Cr7      Cr       0.20846    0.42720    0.95754    1.000
    Cr7      Cr       0.04154    0.92720    0.79246    1.000
    Cr7      Cr       0.54154    0.82280    0.45754    1.000
    Cr7      Cr       0.29246    0.70846    0.32280    1.000
    Cr7      Cr       0.95754    0.20846    0.42720    1.000
    Cr7      Cr       0.79246    0.04154    0.92720    1.000
    Cr7      Cr       0.45754    0.54154    0.82280    1.000
    Cr7      Cr       0.04246    0.57280    0.79154    1.000
    Cr7      Cr       0.70754    0.67720    0.29154    1.000
    Cr7      Cr       0.54246    0.17720    0.45846    1.000
    Cr7      Cr       0.20754    0.07280    0.95846    1.000
    Cr7      Cr       0.07280    0.95846    0.20754    1.000
    Cr7      Cr       0.17720    0.45846    0.54246    1.000
    Cr7      Cr       0.67720    0.29154    0.70754    1.000
    Cr7      Cr       0.57280    0.79154    0.04246    1.000
    Cr7      Cr       0.45846    0.54246    0.17720    1.000
    Cr7      Cr       0.95846    0.20754    0.07280    1.000
    Cr7      Cr       0.79154    0.04246    0.57280    1.000
    Cr7      Cr       0.29154    0.70754    0.67720    1.000
    Cr7      Cr       0.67720    0.70754    0.29154    1.000
    Cr7      Cr       0.57280    0.04246    0.79154    1.000
    Cr7      Cr       0.07280    0.20754    0.95846    1.000
    Cr7      Cr       0.17720    0.54246    0.45846    1.000
    Cr7      Cr       0.29154    0.67720    0.70754    1.000
    Cr7      Cr       0.79154    0.57280    0.04246    1.000
    Cr7      Cr       0.95846    0.07280    0.20754    1.000
    Cr7      Cr       0.45846    0.17720    0.54246    1.000
    Cr7      Cr       0.70754    0.29154    0.67720    1.000
    Cr7      Cr       0.04246    0.79154    0.57280    1.000
    Cr7      Cr       0.20754    0.95846    0.07280    1.000
    Cr7      Cr       0.54246    0.45846    0.17720    1.000
    Cr7      Cr       0.95754    0.42720    0.20846    1.000
    Cr7      Cr       0.29246    0.32280    0.70846    1.000
    Cr7      Cr       0.45754    0.82280    0.54154    1.000
    Cr7      Cr       0.79246    0.92720    0.04154    1.000
    Cr7      Cr       0.92720    0.04154    0.79246    1.000
    Cr7      Cr       0.82280    0.54154    0.45754    1.000
    Cr7      Cr       0.32280    0.70846    0.29246    1.000
    Cr7      Cr       0.42720    0.20846    0.95754    1.000
    Cr7      Cr       0.54154    0.45754    0.82280    1.000
    Cr7      Cr       0.04154    0.79246    0.92720    1.000
    Cr7      Cr       0.20846    0.95754    0.42720    1.000
    Cr7      Cr       0.70846    0.29246    0.32280    1.000
    Cr7      Cr       0.32280    0.79246    0.20846    1.000
    Cr7      Cr       0.42720    0.45754    0.70846    1.000
    Cr7      Cr       0.92720    0.29246    0.54154    1.000
    Cr7      Cr       0.82280    0.95754    0.04154    1.000
    Cr7      Cr       0.70846    0.82280    0.79246    1.000
    Cr7      Cr       0.20846    0.92720    0.45754    1.000
    Cr7      Cr       0.04154    0.42720    0.29246    1.000
    Cr7      Cr       0.54154    0.32280    0.95754    1.000
    Cr7      Cr       0.29246    0.20846    0.82280    1.000
    Cr7      Cr       0.95754    0.70846    0.92720    1.000
    Cr7      Cr       0.79246    0.54154    0.42720    1.000
    Cr7      Cr       0.45754    0.04154    0.32280    1.000
    Cr7      Cr       0.04246    0.07280    0.29154    1.000
    Cr7      Cr       0.70754    0.17720    0.79154    1.000
    Cr7      Cr       0.54246    0.67720    0.95846    1.000
    Cr7      Cr       0.20754    0.57280    0.45846    1.000
    Cr7      Cr       0.07280    0.45846    0.70754    1.000
    Cr7      Cr       0.17720    0.95846    0.04246    1.000
    Cr7      Cr       0.67720    0.79154    0.20754    1.000
    Cr7      Cr       0.57280    0.29154    0.54246    1.000
    Cr7      Cr       0.45846    0.04246    0.67720    1.000
    Cr7      Cr       0.95846    0.70754    0.57280    1.000
    Cr7      Cr       0.79154    0.54246    0.07280    1.000
    Cr7      Cr       0.29154    0.20754    0.17720    1.000
    Cr7      Cr       0.67720    0.20754    0.79154    1.000
    Cr7      Cr       0.57280    0.54246    0.29154    1.000
    Cr7      Cr       0.07280    0.70754    0.45846    1.000
    Cr7      Cr       0.17720    0.04246    0.95846    1.000
    Cr7      Cr       0.29154    0.17720    0.20754    1.000
    Cr7      Cr       0.79154    0.07280    0.54246    1.000
    Cr7      Cr       0.95846    0.57280    0.70754    1.000
    Cr7      Cr       0.45846    0.67720    0.04246    1.000
    Cr7      Cr       0.70754    0.79154    0.17720    1.000
    Cr7      Cr       0.04246    0.29154    0.07280    1.000
    Cr7      Cr       0.20754    0.45846    0.57280    1.000
    Cr7      Cr       0.54246    0.95846    0.67720    1.000
    Cr7      Cr       0.95754    0.92720    0.70846    1.000
    Cr7      Cr       0.29246    0.82280    0.20846    1.000
    Cr7      Cr       0.45754    0.32280    0.04154    1.000
    Cr7      Cr       0.79246    0.42720    0.54154    1.000
    Cr7      Cr       0.92720    0.54154    0.29246    1.000
    Cr7      Cr       0.82280    0.04154    0.95754    1.000
    Cr7      Cr       0.32280    0.20846    0.79246    1.000
    Cr7      Cr       0.42720    0.70846    0.45754    1.000
    Cr7      Cr       0.54154    0.95754    0.32280    1.000
    Cr7      Cr       0.04154    0.29246    0.42720    1.000
    Cr7      Cr       0.20846    0.45754    0.92720    1.000
    Cr7      Cr       0.70846    0.79246    0.82280    1.000
    Cr7      Cr       0.82280    0.29246    0.20846    1.000
    Cr7      Cr       0.92720    0.95754    0.70846    1.000
    Cr7      Cr       0.42720    0.79246    0.54154    1.000
    Cr7      Cr       0.32280    0.45754    0.04154    1.000
    Cr7      Cr       0.20846    0.32280    0.79246    1.000
    Cr7      Cr       0.70846    0.42720    0.45754    1.000
    Cr7      Cr       0.54154    0.92720    0.29246    1.000
    Cr7      Cr       0.04154    0.82280    0.95754    1.000
    Cr7      Cr       0.79246    0.70846    0.82280    1.000
    Cr7      Cr       0.45754    0.20846    0.92720    1.000
    Cr7      Cr       0.29246    0.04154    0.42720    1.000
    Cr7      Cr       0.95754    0.54154    0.32280    1.000
    Cr7      Cr       0.54246    0.57280    0.29154    1.000
    Cr7      Cr       0.20754    0.67720    0.79154    1.000
    Cr7      Cr       0.04246    0.17720    0.95846    1.000
    Cr7      Cr       0.70754    0.07280    0.45846    1.000
    Cr7      Cr       0.57280    0.95846    0.70754    1.000
    Cr7      Cr       0.67720    0.45846    0.04246    1.000
    Cr7      Cr       0.17720    0.29154    0.20754    1.000
    Cr7      Cr       0.07280    0.79154    0.54246    1.000
    Cr7      Cr       0.95846    0.54246    0.67720    1.000
    Cr7      Cr       0.45846    0.20754    0.57280    1.000
    Cr7      Cr       0.29154    0.04246    0.07280    1.000
    Cr7      Cr       0.79154    0.70754    0.17720    1.000
    Cr7      Cr       0.17720    0.70754    0.79154    1.000
    Cr7      Cr       0.07280    0.04246    0.29154    1.000
    Cr7      Cr       0.57280    0.20754    0.45846    1.000
    Cr7      Cr       0.67720    0.54246    0.95846    1.000
    Cr7      Cr       0.79154    0.67720    0.20754    1.000
    Cr7      Cr       0.29154    0.57280    0.54246    1.000
    Cr7      Cr       0.45846    0.07280    0.70754    1.000
    Cr7      Cr       0.95846    0.17720    0.04246    1.000
    Cr7      Cr       0.20754    0.29154    0.17720    1.000
    Cr7      Cr       0.54246    0.79154    0.07280    1.000
    Cr7      Cr       0.70754    0.95846    0.57280    1.000
    Cr7      Cr       0.04246    0.45846    0.67720    1.000
    Cr7      Cr       0.45754    0.42720    0.70846    1.000
    Cr7      Cr       0.79246    0.32280    0.20846    1.000
    Cr7      Cr       0.95754    0.82280    0.04154    1.000
    Cr7      Cr       0.29246    0.92720    0.54154    1.000
    Cr7      Cr       0.42720    0.04154    0.29246    1.000
    Cr7      Cr       0.32280    0.54154    0.95754    1.000
    Cr7      Cr       0.82280    0.70846    0.79246    1.000
    Cr7      Cr       0.92720    0.20846    0.45754    1.000
    Cr7      Cr       0.04154    0.45754    0.32280    1.000
    Cr7      Cr       0.54154    0.79246    0.42720    1.000
    Cr7      Cr       0.70846    0.95754    0.92720    1.000
    Cr7      Cr       0.20846    0.29246    0.82280    1.000
    Cr7      Cr       0.82280    0.79246    0.70846    1.000
    Cr7      Cr       0.92720    0.45754    0.20846    1.000
    Cr7      Cr       0.42720    0.29246    0.04154    1.000
    Cr7      Cr       0.32280    0.95754    0.54154    1.000
    Cr7      Cr       0.20846    0.82280    0.29246    1.000
    Cr7      Cr       0.70846    0.92720    0.95754    1.000
    Cr7      Cr       0.54154    0.42720    0.79246    1.000
    Cr7      Cr       0.04154    0.32280    0.45754    1.000
    Cr7      Cr       0.79246    0.20846    0.32280    1.000
    Cr7      Cr       0.45754    0.70846    0.42720    1.000
    Cr7      Cr       0.29246    0.54154    0.92720    1.000
    Cr7      Cr       0.95754    0.04154    0.82280    1.000
    Cr7      Cr       0.54246    0.07280    0.79154    1.000
    Cr7      Cr       0.20754    0.17720    0.29154    1.000
    Cr7      Cr       0.04246    0.67720    0.45846    1.000
    Cr7      Cr       0.70754    0.57280    0.95846    1.000
    Cr7      Cr       0.57280    0.45846    0.20754    1.000
    Cr7      Cr       0.67720    0.95846    0.54246    1.000
    Cr7      Cr       0.17720    0.79154    0.70754    1.000
    Cr7      Cr       0.07280    0.29154    0.04246    1.000
    Cr7      Cr       0.95846    0.04246    0.17720    1.000
    Cr7      Cr       0.45846    0.70754    0.07280    1.000
    Cr7      Cr       0.29154    0.54246    0.57280    1.000
    Cr7      Cr       0.79154    0.20754    0.67720    1.000
    Cr7      Cr       0.17720    0.20754    0.29154    1.000
    Cr7      Cr       0.07280    0.54246    0.79154    1.000
    Cr7      Cr       0.57280    0.70754    0.95846    1.000
    Cr7      Cr       0.67720    0.04246    0.45846    1.000
    Cr7      Cr       0.79154    0.17720    0.70754    1.000
    Cr7      Cr       0.29154    0.07280    0.04246    1.000
    Cr7      Cr       0.45846    0.57280    0.20754    1.000
    Cr7      Cr       0.95846    0.67720    0.54246    1.000
    Cr7      Cr       0.20754    0.79154    0.67720    1.000
    Cr7      Cr       0.54246    0.29154    0.57280    1.000
    Cr7      Cr       0.70754    0.45846    0.07280    1.000
    Cr7      Cr       0.04246    0.95846    0.17720    1.000
    Cr7      Cr       0.45754    0.92720    0.20846    1.000
    Cr7      Cr       0.79246    0.82280    0.70846    1.000
    Cr7      Cr       0.95754    0.32280    0.54154    1.000
    Cr7      Cr       0.29246    0.42720    0.04154    1.000
    Cr7      Cr       0.42720    0.54154    0.79246    1.000
    Cr7      Cr       0.32280    0.04154    0.45754    1.000
    Cr7      Cr       0.82280    0.20846    0.29246    1.000
    Cr7      Cr       0.92720    0.70846    0.95754    1.000
    Cr7      Cr       0.04154    0.95754    0.82280    1.000
    Cr7      Cr       0.54154    0.29246    0.92720    1.000
    Cr7      Cr       0.70846    0.45754    0.42720    1.000
    Cr7      Cr       0.20846    0.79246    0.32280    1.000
    O1       O        0.67084    0.17084    0.67085    1.000
    O1       O        0.17084    0.57916    0.57915    1.000
    O1       O        0.57916    0.67084    0.07915    1.000
    O1       O        0.17085    0.07916    0.07916    1.000
    O1       O        0.67085    0.67084    0.17084    1.000
    O1       O        0.57915    0.17084    0.57916    1.000
    O1       O        0.07915    0.57916    0.67084    1.000
    O1       O        0.07916    0.17085    0.07916    1.000
    O1       O        0.17084    0.67085    0.67084    1.000
    O1       O        0.57916    0.57915    0.17084    1.000
    O1       O        0.67084    0.07915    0.57916    1.000
    O1       O        0.82916    0.32916    0.32915    1.000
    O1       O        0.92084    0.92084    0.82915    1.000
    O1       O        0.32916    0.42084    0.92085    1.000
    O1       O        0.42084    0.82916    0.42085    1.000
    O1       O        0.82916    0.42085    0.42084    1.000
    O1       O        0.42084    0.92085    0.32916    1.000
    O1       O        0.92084    0.82915    0.92084    1.000
    O1       O        0.32916    0.32915    0.82916    1.000
    O1       O        0.92085    0.32916    0.42084    1.000
    O1       O        0.42085    0.42084    0.82916    1.000
    O1       O        0.32915    0.82916    0.32916    1.000
    O1       O        0.82915    0.92084    0.92084    1.000
    O1       O        0.42084    0.32916    0.92085    1.000
    O1       O        0.92085    0.42084    0.32916    1.000
    O1       O        0.32916    0.92085    0.42084    1.000
    O1       O        0.67084    0.57916    0.07915    1.000
    O1       O        0.57916    0.07915    0.67084    1.000
    O1       O        0.07915    0.67084    0.57916    1.000
    O1       O        0.17084    0.17085    0.17084    1.000
    O1       O        0.82916    0.82916    0.82915    1.000
    O2       O        0.54996    0.04996    0.79603    1.000
    O2       O        0.04996    0.70004    0.45397    1.000
    O2       O        0.70004    0.54996    0.95397    1.000
    O2       O        0.29603    0.20004    0.20004    1.000
    O2       O        0.79603    0.54996    0.04996    1.000
    O2       O        0.45397    0.04996    0.70004    1.000
    O2       O        0.95397    0.70004    0.54996    1.000
    O2       O        0.20004    0.29603    0.20004    1.000
    O2       O        0.04996    0.79603    0.54996    1.000
    O2       O        0.70004    0.45397    0.04996    1.000
    O2       O        0.54996    0.95397    0.70004    1.000
    O2       O        0.95004    0.45004    0.20397    1.000
    O2       O        0.79996    0.79996    0.70397    1.000
    O2       O        0.45004    0.29996    0.04603    1.000
    O2       O        0.29996    0.95004    0.54603    1.000
    O2       O        0.95004    0.54603    0.29996    1.000
    O2       O        0.29996    0.04603    0.45004    1.000
    O2       O        0.79996    0.70397    0.79996    1.000
    O2       O        0.45004    0.20397    0.95004    1.000
    O2       O        0.04603    0.45004    0.29996    1.000
    O2       O        0.54603    0.29996    0.95004    1.000
    O2       O        0.20397    0.95004    0.45004    1.000
    O2       O        0.70397    0.79996    0.79996    1.000
    O2       O        0.45004    0.95004    0.20397    1.000
    O2       O        0.95004    0.29996    0.54603    1.000
    O2       O        0.29996    0.45004    0.04603    1.000
    O2       O        0.20397    0.45004    0.95004    1.000
    O2       O        0.54603    0.95004    0.29996    1.000
    O2       O        0.04603    0.29996    0.45004    1.000
    O2       O        0.95004    0.20397    0.45004    1.000
    O2       O        0.29996    0.54603    0.95004    1.000
    O2       O        0.45004    0.04603    0.29996    1.000
    O2       O        0.04996    0.54996    0.79603    1.000
    O2       O        0.54996    0.70004    0.95397    1.000
    O2       O        0.70004    0.04996    0.45397    1.000
    O2       O        0.04996    0.45397    0.70004    1.000
    O2       O        0.70004    0.95397    0.54996    1.000
    O2       O        0.54996    0.79603    0.04996    1.000
    O2       O        0.95397    0.54996    0.70004    1.000
    O2       O        0.45397    0.70004    0.04996    1.000
    O2       O        0.79603    0.04996    0.54996    1.000
    O2       O        0.20004    0.70004    0.79603    1.000
    O2       O        0.54996    0.54996    0.29603    1.000
    O2       O        0.04996    0.20004    0.95397    1.000
    O2       O        0.29603    0.70004    0.70004    1.000
    O2       O        0.45397    0.54996    0.20004    1.000
    O2       O        0.95397    0.20004    0.04996    1.000
    O2       O        0.20004    0.79603    0.70004    1.000
    O2       O        0.04996    0.29603    0.04996    1.000
    O2       O        0.54996    0.45397    0.20004    1.000
    O2       O        0.95004    0.95004    0.70397    1.000
    O2       O        0.79996    0.29996    0.20397    1.000
    O2       O        0.45004    0.79996    0.54603    1.000
    O2       O        0.95004    0.04603    0.79996    1.000
    O2       O        0.79996    0.20397    0.29996    1.000
    O2       O        0.45004    0.70397    0.45004    1.000
    O2       O        0.04603    0.95004    0.79996    1.000
    O2       O        0.54603    0.79996    0.45004    1.000
    O2       O        0.70397    0.29996    0.29996    1.000
    O2       O        0.45004    0.45004    0.70397    1.000
    O2       O        0.95004    0.79996    0.04603    1.000
    O2       O        0.54603    0.45004    0.79996    1.000
    O2       O        0.04603    0.79996    0.95004    1.000
    O2       O        0.95004    0.70397    0.95004    1.000
    O2       O        0.45004    0.54603    0.79996    1.000
    O2       O        0.04996    0.04996    0.29603    1.000
    O2       O        0.54996    0.20004    0.45397    1.000
    O2       O        0.04996    0.95397    0.20004    1.000
    O2       O        0.54996    0.29603    0.54996    1.000
    O2       O        0.95397    0.04996    0.20004    1.000
    O2       O        0.45397    0.20004    0.54996    1.000
    O2       O        0.70004    0.20004    0.79603    1.000
    O2       O        0.20004    0.54996    0.45397    1.000
    O2       O        0.79603    0.20004    0.70004    1.000
    O2       O        0.29603    0.54996    0.54996    1.000
    O2       O        0.70004    0.29603    0.70004    1.000
    O2       O        0.20004    0.45397    0.54996    1.000
    O2       O        0.29996    0.79996    0.20397    1.000
    O2       O        0.79996    0.95004    0.04603    1.000
    O2       O        0.79996    0.04603    0.95004    1.000
    O2       O        0.29996    0.70397    0.29996    1.000
    O2       O        0.70397    0.95004    0.95004    1.000
    O2       O        0.20397    0.79996    0.29996    1.000
    O2       O        0.79996    0.45004    0.54603    1.000
    O2       O        0.70397    0.45004    0.45004    1.000
    O2       O        0.79996    0.54603    0.45004    1.000
    O2       O        0.20004    0.04996    0.95397    1.000
    O2       O        0.20004    0.95397    0.04996    1.000
    O2       O        0.29603    0.04996    0.04996    1.000
    O2       O        0.70004    0.70004    0.29603    1.000
    O2       O        0.79603    0.70004    0.20004    1.000
    O2       O        0.70004    0.79603    0.20004    1.000
    O2       O        0.29996    0.29996    0.70397    1.000
    O2       O        0.29996    0.20397    0.79996    1.000
    O2       O        0.20397    0.29996    0.79996    1.000
    O3       O        0.62500    0.37367    0.62500    1.000
    O3       O        0.12500    0.37633    0.62500    1.000
    O3       O        0.62500    0.87367    0.12500    1.000
    O3       O        0.12500    0.12500    0.87633    1.000
    O3       O        0.62500    0.62500    0.37367    1.000
    O3       O        0.62500    0.12500    0.37633    1.000
    O3       O        0.12500    0.62500    0.87367    1.000
    O3       O        0.87633    0.12500    0.12500    1.000
    O3       O        0.37367    0.62500    0.62500    1.000
    O3       O        0.37633    0.62500    0.12500    1.000
    O3       O        0.87367    0.12500    0.62500    1.000
    O3       O        0.62633    0.37500    0.37500    1.000
    O3       O        0.12367    0.87500    0.87500    1.000
    O3       O        0.12633    0.37500    0.87500    1.000
    O3       O        0.62367    0.87500    0.37500    1.000
    O3       O        0.87500    0.37500    0.62367    1.000
    O3       O        0.37500    0.87500    0.12633    1.000
    O3       O        0.87500    0.87500    0.12367    1.000
    O3       O        0.37500    0.37500    0.62633    1.000
    O3       O        0.87500    0.12633    0.37500    1.000
    O3       O        0.37500    0.62367    0.87500    1.000
    O3       O        0.37500    0.62633    0.37500    1.000
    O3       O        0.87500    0.12367    0.87500    1.000
    O3       O        0.87500    0.62367    0.37500    1.000
    O3       O        0.37500    0.12633    0.87500    1.000
    O3       O        0.37500    0.87500    0.62367    1.000
    O3       O        0.87500    0.37500    0.12633    1.000
    O3       O        0.62367    0.37500    0.87500    1.000
    O3       O        0.12633    0.87500    0.37500    1.000
    O3       O        0.87367    0.62500    0.12500    1.000
    O3       O        0.37633    0.12500    0.62500    1.000
    O3       O        0.12500    0.62500    0.37633    1.000
    O3       O        0.62500    0.12500    0.87367    1.000
    O3       O        0.12500    0.87367    0.62500    1.000
    O3       O        0.62500    0.37633    0.12500    1.000
    O3       O        0.62500    0.62500    0.87633    1.000
    O3       O        0.12500    0.12500    0.37367    1.000
    O3       O        0.87633    0.62500    0.62500    1.000
    O3       O        0.37367    0.12500    0.12500    1.000
    O3       O        0.62633    0.87500    0.87500    1.000
    O3       O        0.12367    0.37500    0.37500    1.000
    O3       O        0.87500    0.62633    0.87500    1.000
    O3       O        0.37500    0.12367    0.37500    1.000
    O3       O        0.37500    0.37500    0.12367    1.000
    O3       O        0.87500    0.87500    0.62633    1.000
    O3       O        0.12500    0.37367    0.12500    1.000
    O3       O        0.62500    0.87633    0.62500    1.000
    O4       O        0.59188    0.90811    0.00000    1.000
    O4       O        0.09188    0.84189    0.25000    1.000
    O4       O        0.65812    0.40811    0.75000    1.000
    O4       O        0.50000    0.15812    0.34189    1.000
    O4       O        0.00000    0.59188    0.90811    1.000
    O4       O        0.25000    0.09188    0.84189    1.000
    O4       O        0.75000    0.65812    0.40811    1.000
    O4       O        0.34189    0.50000    0.15812    1.000
    O4       O        0.90811    0.00000    0.59188    1.000
    O4       O        0.84189    0.25000    0.09188    1.000
    O4       O        0.40811    0.75000    0.65812    1.000
    O4       O        0.09189    0.40812    0.00000    1.000
    O4       O        0.65811    0.84188    0.50000    1.000
    O4       O        0.59189    0.34188    0.25000    1.000
    O4       O        0.15811    0.90812    0.75000    1.000
    O4       O        0.90812    0.75000    0.15811    1.000
    O4       O        0.34188    0.25000    0.59189    1.000
    O4       O        0.84188    0.50000    0.65811    1.000
    O4       O        0.40812    0.00000    0.09189    1.000
    O4       O        0.25000    0.59189    0.34188    1.000
    O4       O        0.75000    0.15811    0.90812    1.000
    O4       O        0.00000    0.09189    0.40812    1.000
    O4       O        0.50000    0.65811    0.84188    1.000
    O4       O        0.84188    0.65811    0.50000    1.000
    O4       O        0.40812    0.09189    0.00000    1.000
    O4       O        0.90812    0.15811    0.75000    1.000
    O4       O        0.34188    0.59189    0.25000    1.000
    O4       O        0.50000    0.84188    0.65811    1.000
    O4       O        0.00000    0.40812    0.09189    1.000
    O4       O        0.75000    0.90812    0.15811    1.000
    O4       O        0.25000    0.34188    0.59189    1.000
    O4       O        0.65811    0.50000    0.84188    1.000
    O4       O        0.09189    0.00000    0.40812    1.000
    O4       O        0.15811    0.75000    0.90812    1.000
    O4       O        0.59189    0.25000    0.34188    1.000
    O4       O        0.90811    0.59188    0.00000    1.000
    O4       O        0.34189    0.15812    0.50000    1.000
    O4       O        0.40811    0.65812    0.75000    1.000
    O4       O        0.84189    0.09188    0.25000    1.000
    O4       O        0.09188    0.25000    0.84189    1.000
    O4       O        0.65812    0.75000    0.40811    1.000
    O4       O        0.15812    0.50000    0.34189    1.000
    O4       O        0.59188    0.00000    0.90811    1.000
    O4       O        0.75000    0.40811    0.65812    1.000
    O4       O        0.25000    0.84189    0.09188    1.000
    O4       O        0.00000    0.90811    0.59188    1.000
    O4       O        0.50000    0.34189    0.15812    1.000
    O4       O        0.15812    0.84189    0.00000    1.000
    O4       O        0.59188    0.40811    0.50000    1.000
    O4       O        0.09188    0.34189    0.75000    1.000
    O4       O        0.65812    0.90811    0.25000    1.000
    O4       O        0.34189    0.00000    0.65812    1.000
    O4       O        0.90811    0.50000    0.09188    1.000
    O4       O        0.84189    0.75000    0.59188    1.000
    O4       O        0.40811    0.25000    0.15812    1.000
    O4       O        0.09189    0.90812    0.50000    1.000
    O4       O        0.65811    0.34188    0.00000    1.000
    O4       O        0.59189    0.84188    0.75000    1.000
    O4       O        0.15811    0.40812    0.25000    1.000
    O4       O        0.90812    0.25000    0.65811    1.000
    O4       O        0.34188    0.75000    0.09189    1.000
    O4       O        0.84188    0.00000    0.15811    1.000
    O4       O        0.40812    0.50000    0.59189    1.000
    O4       O        0.84188    0.15811    0.00000    1.000
    O4       O        0.40812    0.59189    0.50000    1.000
    O4       O        0.90812    0.65811    0.25000    1.000
    O4       O        0.34188    0.09189    0.75000    1.000
    O4       O        0.65811    0.00000    0.34188    1.000
    O4       O        0.09189    0.50000    0.90812    1.000
    O4       O        0.15811    0.25000    0.40812    1.000
    O4       O        0.59189    0.75000    0.84188    1.000
    O4       O        0.90811    0.09188    0.50000    1.000
    O4       O        0.34189    0.65812    0.00000    1.000
    O4       O        0.40811    0.15812    0.25000    1.000
    O4       O        0.84189    0.59188    0.75000    1.000
    O4       O        0.09188    0.75000    0.34189    1.000
    O4       O        0.65812    0.25000    0.90811    1.000
    O4       O        0.15812    0.00000    0.84189    1.000
    O4       O        0.59188    0.50000    0.40811    1.000
    O4       O        0.00000    0.15812    0.84189    1.000
    O4       O        0.50000    0.59188    0.40811    1.000
    O4       O        0.75000    0.09188    0.34189    1.000
    O4       O        0.25000    0.65812    0.90811    1.000
    O4       O        0.75000    0.59189    0.84188    1.000
    O4       O        0.25000    0.15811    0.40812    1.000
    O4       O        0.50000    0.09189    0.90812    1.000
    O4       O        0.00000    0.65811    0.34188    1.000
    O4       O        0.00000    0.84188    0.15811    1.000
    O4       O        0.50000    0.40812    0.59189    1.000
    O4       O        0.25000    0.90812    0.65811    1.000
    O4       O        0.75000    0.34188    0.09189    1.000
    O4       O        0.25000    0.40811    0.15812    1.000
    O4       O        0.75000    0.84189    0.59188    1.000
    O4       O        0.50000    0.90811    0.09188    1.000
    O4       O        0.00000    0.34189    0.65812    1.000
    O5       O        0.89131    0.34018    0.43036    1.000
    O5       O        0.39131    0.40982    0.81964    1.000
    O5       O        0.35869    0.84018    0.31964    1.000
    O5       O        0.93036    0.85869    0.90982    1.000
    O5       O        0.43036    0.89131    0.34018    1.000
    O5       O        0.81964    0.39131    0.40982    1.000
    O5       O        0.31964    0.35869    0.84018    1.000
    O5       O        0.90982    0.93036    0.85869    1.000
    O5       O        0.34018    0.43036    0.89131    1.000
    O5       O        0.40982    0.81964    0.39131    1.000
    O5       O        0.84018    0.31964    0.35869    1.000
    O5       O        0.65982    0.10869    0.56964    1.000
    O5       O        0.09018    0.14131    0.06964    1.000
    O5       O        0.15982    0.64131    0.68036    1.000
    O5       O        0.59018    0.60869    0.18036    1.000
    O5       O        0.60869    0.18036    0.59018    1.000
    O5       O        0.64131    0.68036    0.15982    1.000
    O5       O        0.14131    0.06964    0.09018    1.000
    O5       O        0.10869    0.56964    0.65982    1.000
    O5       O        0.68036    0.15982    0.64131    1.000
    O5       O        0.18036    0.59018    0.60869    1.000
    O5       O        0.56964    0.65982    0.10869    1.000
    O5       O        0.06964    0.09018    0.14131    1.000
    O5       O        0.14131    0.09018    0.06964    1.000
    O5       O        0.10869    0.65982    0.56964    1.000
    O5       O        0.60869    0.59018    0.18036    1.000
    O5       O        0.64131    0.15982    0.68036    1.000
    O5       O        0.06964    0.14131    0.09018    1.000
    O5       O        0.56964    0.10869    0.65982    1.000
    O5       O        0.18036    0.60869    0.59018    1.000
    O5       O        0.68036    0.64131    0.15982    1.000
    O5       O        0.09018    0.06964    0.14131    1.000
    O5       O        0.65982    0.56964    0.10869    1.000
    O5       O        0.59018    0.18036    0.60869    1.000
    O5       O        0.15982    0.68036    0.64131    1.000
    O5       O        0.34018    0.89131    0.43036    1.000
    O5       O        0.90982    0.85869    0.93036    1.000
    O5       O        0.84018    0.35869    0.31964    1.000
    O5       O        0.40982    0.39131    0.81964    1.000
    O5       O        0.39131    0.81964    0.40982    1.000
    O5       O        0.35869    0.31964    0.84018    1.000
    O5       O        0.85869    0.93036    0.90982    1.000
    O5       O        0.89131    0.43036    0.34018    1.000
    O5       O        0.31964    0.84018    0.35869    1.000
    O5       O        0.81964    0.40982    0.39131    1.000
    O5       O        0.43036    0.34018    0.89131    1.000
    O5       O        0.93036    0.90982    0.85869    1.000
    O5       O        0.85869    0.40982    0.43036    1.000
    O5       O        0.89131    0.84018    0.93036    1.000
    O5       O        0.39131    0.90982    0.31964    1.000
    O5       O        0.35869    0.34018    0.81964    1.000
    O5       O        0.93036    0.35869    0.40982    1.000
    O5       O        0.43036    0.39131    0.84018    1.000
    O5       O        0.81964    0.89131    0.90982    1.000
    O5       O        0.31964    0.85869    0.34018    1.000
    O5       O        0.90982    0.43036    0.35869    1.000
    O5       O        0.34018    0.93036    0.39131    1.000
    O5       O        0.40982    0.31964    0.89131    1.000
    O5       O        0.84018    0.81964    0.85869    1.000
    O5       O        0.65982    0.60869    0.06964    1.000
    O5       O        0.09018    0.64131    0.56964    1.000
    O5       O        0.15982    0.14131    0.18036    1.000
    O5       O        0.59018    0.10869    0.68036    1.000
    O5       O        0.60869    0.68036    0.09018    1.000
    O5       O        0.64131    0.18036    0.65982    1.000
    O5       O        0.14131    0.56964    0.59018    1.000
    O5       O        0.10869    0.06964    0.15982    1.000
    O5       O        0.68036    0.65982    0.14131    1.000
    O5       O        0.18036    0.09018    0.10869    1.000
    O5       O        0.56964    0.15982    0.60869    1.000
    O5       O        0.06964    0.59018    0.64131    1.000
    O5       O        0.14131    0.59018    0.56964    1.000
    O5       O        0.10869    0.15982    0.06964    1.000
    O5       O        0.60869    0.09018    0.68036    1.000
    O5       O        0.64131    0.65982    0.18036    1.000
    O5       O        0.06964    0.64131    0.59018    1.000
    O5       O        0.56964    0.60869    0.15982    1.000
    O5       O        0.18036    0.10869    0.09018    1.000
    O5       O        0.68036    0.14131    0.65982    1.000
    O5       O        0.09018    0.56964    0.64131    1.000
    O5       O        0.65982    0.06964    0.60869    1.000
    O5       O        0.59018    0.68036    0.10869    1.000
    O5       O        0.15982    0.18036    0.14131    1.000
    O5       O        0.34018    0.39131    0.93036    1.000
    O5       O        0.90982    0.35869    0.43036    1.000
    O5       O        0.84018    0.85869    0.81964    1.000
    O5       O        0.40982    0.89131    0.31964    1.000
    O5       O        0.39131    0.31964    0.90982    1.000
    O5       O        0.35869    0.81964    0.34018    1.000
    O5       O        0.85869    0.43036    0.40982    1.000
    O5       O        0.89131    0.93036    0.84018    1.000
    O5       O        0.31964    0.34018    0.85869    1.000
    O5       O        0.81964    0.90982    0.89131    1.000
    O5       O        0.43036    0.84018    0.39131    1.000
    O5       O        0.93036    0.40982    0.35869    1.000
    O5       O        0.35869    0.90982    0.43036    1.000
    O5       O        0.39131    0.34018    0.93036    1.000
    O5       O        0.89131    0.40982    0.31964    1.000
    O5       O        0.85869    0.84018    0.81964    1.000
    O5       O        0.43036    0.85869    0.40982    1.000
    O5       O        0.93036    0.89131    0.84018    1.000
    O5       O        0.31964    0.39131    0.90982    1.000
    O5       O        0.81964    0.35869    0.34018    1.000
    O5       O        0.40982    0.93036    0.35869    1.000
    O5       O        0.84018    0.43036    0.39131    1.000
    O5       O        0.90982    0.81964    0.89131    1.000
    O5       O        0.34018    0.31964    0.85869    1.000
    O5       O        0.15982    0.10869    0.06964    1.000
    O5       O        0.59018    0.14131    0.56964    1.000
    O5       O        0.65982    0.64131    0.18036    1.000
    O5       O        0.09018    0.60869    0.68036    1.000
    O5       O        0.10869    0.18036    0.09018    1.000
    O5       O        0.14131    0.68036    0.65982    1.000
    O5       O        0.64131    0.06964    0.59018    1.000
    O5       O        0.60869    0.56964    0.15982    1.000
    O5       O        0.18036    0.15982    0.14131    1.000
    O5       O        0.68036    0.59018    0.10869    1.000
    O5       O        0.06964    0.65982    0.60869    1.000
    O5       O        0.56964    0.09018    0.64131    1.000
    O5       O        0.64131    0.09018    0.56964    1.000
    O5       O        0.60869    0.65982    0.06964    1.000
    O5       O        0.10869    0.59018    0.68036    1.000
    O5       O        0.14131    0.15982    0.18036    1.000
    O5       O        0.56964    0.14131    0.59018    1.000
    O5       O        0.06964    0.10869    0.15982    1.000
    O5       O        0.68036    0.60869    0.09018    1.000
    O5       O        0.18036    0.64131    0.65982    1.000
    O5       O        0.59018    0.06964    0.64131    1.000
    O5       O        0.15982    0.56964    0.60869    1.000
    O5       O        0.09018    0.18036    0.10869    1.000
    O5       O        0.65982    0.68036    0.14131    1.000
    O5       O        0.84018    0.89131    0.93036    1.000
    O5       O        0.40982    0.85869    0.43036    1.000
    O5       O        0.34018    0.35869    0.81964    1.000
    O5       O        0.90982    0.39131    0.31964    1.000
    O5       O        0.89131    0.81964    0.90982    1.000
    O5       O        0.85869    0.31964    0.34018    1.000
    O5       O        0.35869    0.93036    0.40982    1.000
    O5       O        0.39131    0.43036    0.84018    1.000
    O5       O        0.81964    0.84018    0.85869    1.000
    O5       O        0.31964    0.40982    0.89131    1.000
    O5       O        0.93036    0.34018    0.39131    1.000
    O5       O        0.43036    0.90982    0.35869    1.000
    O5       O        0.35869    0.40982    0.93036    1.000
    O5       O        0.39131    0.84018    0.43036    1.000
    O5       O        0.89131    0.90982    0.81964    1.000
    O5       O        0.85869    0.34018    0.31964    1.000
    O5       O        0.43036    0.35869    0.90982    1.000
    O5       O        0.93036    0.39131    0.34018    1.000
    O5       O        0.31964    0.89131    0.40982    1.000
    O5       O        0.81964    0.85869    0.84018    1.000
    O5       O        0.40982    0.43036    0.85869    1.000
    O5       O        0.84018    0.93036    0.89131    1.000
    O5       O        0.90982    0.31964    0.39131    1.000
    O5       O        0.34018    0.81964    0.35869    1.000
    O5       O        0.15982    0.60869    0.56964    1.000
    O5       O        0.59018    0.64131    0.06964    1.000
    O5       O        0.65982    0.14131    0.68036    1.000
    O5       O        0.09018    0.10869    0.18036    1.000
    O5       O        0.10869    0.68036    0.59018    1.000
    O5       O        0.14131    0.18036    0.15982    1.000
    O5       O        0.64131    0.56964    0.09018    1.000
    O5       O        0.60869    0.06964    0.65982    1.000
    O5       O        0.18036    0.65982    0.64131    1.000
    O5       O        0.68036    0.09018    0.60869    1.000
    O5       O        0.06964    0.15982    0.10869    1.000
    O5       O        0.56964    0.59018    0.14131    1.000
    O5       O        0.64131    0.59018    0.06964    1.000
    O5       O        0.60869    0.15982    0.56964    1.000
    O5       O        0.10869    0.09018    0.18036    1.000
    O5       O        0.14131    0.65982    0.68036    1.000
    O5       O        0.56964    0.64131    0.09018    1.000
    O5       O        0.06964    0.60869    0.65982    1.000
    O5       O        0.68036    0.10869    0.59018    1.000
    O5       O        0.18036    0.14131    0.15982    1.000
    O5       O        0.59018    0.56964    0.14131    1.000
    O5       O        0.15982    0.06964    0.10869    1.000
    O5       O        0.09018    0.68036    0.60869    1.000
    O5       O        0.65982    0.18036    0.64131    1.000
    O5       O        0.84018    0.39131    0.43036    1.000
    O5       O        0.40982    0.35869    0.93036    1.000
    O5       O        0.34018    0.85869    0.31964    1.000
    O5       O        0.90982    0.89131    0.81964    1.000
    O5       O        0.89131    0.31964    0.40982    1.000
    O5       O        0.85869    0.81964    0.84018    1.000
    O5       O        0.35869    0.43036    0.90982    1.000
    O5       O        0.39131    0.93036    0.34018    1.000
    O5       O        0.81964    0.34018    0.35869    1.000
    O5       O        0.31964    0.90982    0.39131    1.000
    O5       O        0.93036    0.84018    0.89131    1.000
    O5       O        0.43036    0.40982    0.85869    1.000
    O6       O        0.42610    0.94413    0.22646    1.000
    O6       O        0.92610    0.80587    0.02354    1.000
    O6       O        0.82390    0.44413    0.52354    1.000
    O6       O        0.72646    0.32390    0.30587    1.000
    O6       O        0.22646    0.42610    0.94413    1.000
    O6       O        0.02354    0.92610    0.80587    1.000
    O6       O        0.52354    0.82390    0.44413    1.000
    O6       O        0.30587    0.72646    0.32390    1.000
    O6       O        0.94413    0.22646    0.42610    1.000
    O6       O        0.80587    0.02354    0.92610    1.000
    O6       O        0.44413    0.52354    0.82390    1.000
    O6       O        0.05587    0.57390    0.77354    1.000
    O6       O        0.69413    0.67610    0.27354    1.000
    O6       O        0.55587    0.17610    0.47646    1.000
    O6       O        0.19413    0.07390    0.97646    1.000
    O6       O        0.07390    0.97646    0.19413    1.000
    O6       O        0.17610    0.47646    0.55587    1.000
    O6       O        0.67610    0.27354    0.69413    1.000
    O6       O        0.57390    0.77354    0.05587    1.000
    O6       O        0.47646    0.55587    0.17610    1.000
    O6       O        0.97646    0.19413    0.07390    1.000
    O6       O        0.77354    0.05587    0.57390    1.000
    O6       O        0.27354    0.69413    0.67610    1.000
    O6       O        0.67610    0.69413    0.27354    1.000
    O6       O        0.57390    0.05587    0.77354    1.000
    O6       O        0.07390    0.19413    0.97646    1.000
    O6       O        0.17610    0.55587    0.47646    1.000
    O6       O        0.27354    0.67610    0.69413    1.000
    O6       O        0.77354    0.57390    0.05587    1.000
    O6       O        0.97646    0.07390    0.19413    1.000
    O6       O        0.47646    0.17610    0.55587    1.000
    O6       O        0.69413    0.27354    0.67610    1.000
    O6       O        0.05587    0.77354    0.57390    1.000
    O6       O        0.19413    0.97646    0.07390    1.000
    O6       O        0.55587    0.47646    0.17610    1.000
    O6       O        0.94413    0.42610    0.22646    1.000
    O6       O        0.30587    0.32390    0.72646    1.000
    O6       O        0.44413    0.82390    0.52354    1.000
    O6       O        0.80587    0.92610    0.02354    1.000
    O6       O        0.92610    0.02354    0.80587    1.000
    O6       O        0.82390    0.52354    0.44413    1.000
    O6       O        0.32390    0.72646    0.30587    1.000
    O6       O        0.42610    0.22646    0.94413    1.000
    O6       O        0.52354    0.44413    0.82390    1.000
    O6       O        0.02354    0.80587    0.92610    1.000
    O6       O        0.22646    0.94413    0.42610    1.000
    O6       O        0.72646    0.30587    0.32390    1.000
    O6       O        0.32390    0.80587    0.22646    1.000
    O6       O        0.42610    0.44413    0.72646    1.000
    O6       O        0.92610    0.30587    0.52354    1.000
    O6       O        0.82390    0.94413    0.02354    1.000
    O6       O        0.72646    0.82390    0.80587    1.000
    O6       O        0.22646    0.92610    0.44413    1.000
    O6       O        0.02354    0.42610    0.30587    1.000
    O6       O        0.52354    0.32390    0.94413    1.000
    O6       O        0.30587    0.22646    0.82390    1.000
    O6       O        0.94413    0.72646    0.92610    1.000
    O6       O        0.80587    0.52354    0.42610    1.000
    O6       O        0.44413    0.02354    0.32390    1.000
    O6       O        0.05587    0.07390    0.27354    1.000
    O6       O        0.69413    0.17610    0.77354    1.000
    O6       O        0.55587    0.67610    0.97646    1.000
    O6       O        0.19413    0.57390    0.47646    1.000
    O6       O        0.07390    0.47646    0.69413    1.000
    O6       O        0.17610    0.97646    0.05587    1.000
    O6       O        0.67610    0.77354    0.19413    1.000
    O6       O        0.57390    0.27354    0.55587    1.000
    O6       O        0.47646    0.05587    0.67610    1.000
    O6       O        0.97646    0.69413    0.57390    1.000
    O6       O        0.77354    0.55587    0.07390    1.000
    O6       O        0.27354    0.19413    0.17610    1.000
    O6       O        0.67610    0.19413    0.77354    1.000
    O6       O        0.57390    0.55587    0.27354    1.000
    O6       O        0.07390    0.69413    0.47646    1.000
    O6       O        0.17610    0.05587    0.97646    1.000
    O6       O        0.27354    0.17610    0.19413    1.000
    O6       O        0.77354    0.07390    0.55587    1.000
    O6       O        0.97646    0.57390    0.69413    1.000
    O6       O        0.47646    0.67610    0.05587    1.000
    O6       O        0.69413    0.77354    0.17610    1.000
    O6       O        0.05587    0.27354    0.07390    1.000
    O6       O        0.19413    0.47646    0.57390    1.000
    O6       O        0.55587    0.97646    0.67610    1.000
    O6       O        0.94413    0.92610    0.72646    1.000
    O6       O        0.30587    0.82390    0.22646    1.000
    O6       O        0.44413    0.32390    0.02354    1.000
    O6       O        0.80587    0.42610    0.52354    1.000
    O6       O        0.92610    0.52354    0.30587    1.000
    O6       O        0.82390    0.02354    0.94413    1.000
    O6       O        0.32390    0.22646    0.80587    1.000
    O6       O        0.42610    0.72646    0.44413    1.000
    O6       O        0.52354    0.94413    0.32390    1.000
    O6       O        0.02354    0.30587    0.42610    1.000
    O6       O        0.22646    0.44413    0.92610    1.000
    O6       O        0.72646    0.80587    0.82390    1.000
    O6       O        0.82390    0.30587    0.22646    1.000
    O6       O        0.92610    0.94413    0.72646    1.000
    O6       O        0.42610    0.80587    0.52354    1.000
    O6       O        0.32390    0.44413    0.02354    1.000
    O6       O        0.22646    0.32390    0.80587    1.000
    O6       O        0.72646    0.42610    0.44413    1.000
    O6       O        0.52354    0.92610    0.30587    1.000
    O6       O        0.02354    0.82390    0.94413    1.000
    O6       O        0.80587    0.72646    0.82390    1.000
    O6       O        0.44413    0.22646    0.92610    1.000
    O6       O        0.30587    0.02354    0.42610    1.000
    O6       O        0.94413    0.52354    0.32390    1.000
    O6       O        0.55587    0.57390    0.27354    1.000
    O6       O        0.19413    0.67610    0.77354    1.000
    O6       O        0.05587    0.17610    0.97646    1.000
    O6       O        0.69413    0.07390    0.47646    1.000
    O6       O        0.57390    0.97646    0.69413    1.000
    O6       O        0.67610    0.47646    0.05587    1.000
    O6       O        0.17610    0.27354    0.19413    1.000
    O6       O        0.07390    0.77354    0.55587    1.000
    O6       O        0.97646    0.55587    0.67610    1.000
    O6       O        0.47646    0.19413    0.57390    1.000
    O6       O        0.27354    0.05587    0.07390    1.000
    O6       O        0.77354    0.69413    0.17610    1.000
    O6       O        0.17610    0.69413    0.77354    1.000
    O6       O        0.07390    0.05587    0.27354    1.000
    O6       O        0.57390    0.19413    0.47646    1.000
    O6       O        0.67610    0.55587    0.97646    1.000
    O6       O        0.77354    0.67610    0.19413    1.000
    O6       O        0.27354    0.57390    0.55587    1.000
    O6       O        0.47646    0.07390    0.69413    1.000
    O6       O        0.97646    0.17610    0.05587    1.000
    O6       O        0.19413    0.27354    0.17610    1.000
    O6       O        0.55587    0.77354    0.07390    1.000
    O6       O        0.69413    0.97646    0.57390    1.000
    O6       O        0.05587    0.47646    0.67610    1.000
    O6       O        0.44413    0.42610    0.72646    1.000
    O6       O        0.80587    0.32390    0.22646    1.000
    O6       O        0.94413    0.82390    0.02354    1.000
    O6       O        0.30587    0.92610    0.52354    1.000
    O6       O        0.42610    0.02354    0.30587    1.000
    O6       O        0.32390    0.52354    0.94413    1.000
    O6       O        0.82390    0.72646    0.80587    1.000
    O6       O        0.92610    0.22646    0.44413    1.000
    O6       O        0.02354    0.44413    0.32390    1.000
    O6       O        0.52354    0.80587    0.42610    1.000
    O6       O        0.72646    0.94413    0.92610    1.000
    O6       O        0.22646    0.30587    0.82390    1.000
    O6       O        0.82390    0.80587    0.72646    1.000
    O6       O        0.92610    0.44413    0.22646    1.000
    O6       O        0.42610    0.30587    0.02354    1.000
    O6       O        0.32390    0.94413    0.52354    1.000
    O6       O        0.22646    0.82390    0.30587    1.000
    O6       O        0.72646    0.92610    0.94413    1.000
    O6       O        0.52354    0.42610    0.80587    1.000
    O6       O        0.02354    0.32390    0.44413    1.000
    O6       O        0.80587    0.22646    0.32390    1.000
    O6       O        0.44413    0.72646    0.42610    1.000
    O6       O        0.30587    0.52354    0.92610    1.000
    O6       O        0.94413    0.02354    0.82390    1.000
    O6       O        0.55587    0.07390    0.77354    1.000
    O6       O        0.19413    0.17610    0.27354    1.000
    O6       O        0.05587    0.67610    0.47646    1.000
    O6       O        0.69413    0.57390    0.97646    1.000
    O6       O        0.57390    0.47646    0.19413    1.000
    O6       O        0.67610    0.97646    0.55587    1.000
    O6       O        0.17610    0.77354    0.69413    1.000
    O6       O        0.07390    0.27354    0.05587    1.000
    O6       O        0.97646    0.05587    0.17610    1.000
    O6       O        0.47646    0.69413    0.07390    1.000
    O6       O        0.27354    0.55587    0.57390    1.000
    O6       O        0.77354    0.19413    0.67610    1.000
    O6       O        0.17610    0.19413    0.27354    1.000
    O6       O        0.07390    0.55587    0.77354    1.000
    O6       O        0.57390    0.69413    0.97646    1.000
    O6       O        0.67610    0.05587    0.47646    1.000
    O6       O        0.77354    0.17610    0.69413    1.000
    O6       O        0.27354    0.07390    0.05587    1.000
    O6       O        0.47646    0.57390    0.19413    1.000
    O6       O        0.97646    0.67610    0.55587    1.000
    O6       O        0.19413    0.77354    0.67610    1.000
    O6       O        0.55587    0.27354    0.57390    1.000
    O6       O        0.69413    0.47646    0.07390    1.000
    O6       O        0.05587    0.97646    0.17610    1.000
    O6       O        0.44413    0.92610    0.22646    1.000
    O6       O        0.80587    0.82390    0.72646    1.000
    O6       O        0.94413    0.32390    0.52354    1.000
    O6       O        0.30587    0.42610    0.02354    1.000
    O6       O        0.42610    0.52354    0.80587    1.000
    O6       O        0.32390    0.02354    0.44413    1.000
    O6       O        0.82390    0.22646    0.30587    1.000
    O6       O        0.92610    0.72646    0.94413    1.000
    O6       O        0.02354    0.94413    0.82390    1.000
    O6       O        0.52354    0.30587    0.92610    1.000
    O6       O        0.72646    0.44413    0.42610    1.000
    O6       O        0.22646    0.80587    0.32390    1.000
    O7       O        0.41114    0.92737    0.30070    1.000
    O7       O        0.91114    0.82263    0.94930    1.000
    O7       O        0.83886    0.42737    0.44930    1.000
    O7       O        0.80070    0.33886    0.32263    1.000
    O7       O        0.30070    0.41114    0.92737    1.000
    O7       O        0.94930    0.91114    0.82263    1.000
    O7       O        0.44930    0.83886    0.42737    1.000
    O7       O        0.32263    0.80070    0.33886    1.000
    O7       O        0.92737    0.30070    0.41114    1.000
    O7       O        0.82263    0.94930    0.91114    1.000
    O7       O        0.42737    0.44930    0.83886    1.000
    O7       O        0.07263    0.58886    0.69930    1.000
    O7       O        0.67737    0.66114    0.19930    1.000
    O7       O        0.57263    0.16114    0.55070    1.000
    O7       O        0.17737    0.08886    0.05070    1.000
    O7       O        0.08886    0.05070    0.17737    1.000
    O7       O        0.16114    0.55070    0.57263    1.000
    O7       O        0.66114    0.19930    0.67737    1.000
    O7       O        0.58886    0.69930    0.07263    1.000
    O7       O        0.55070    0.57263    0.16114    1.000
    O7       O        0.05070    0.17737    0.08886    1.000
    O7       O        0.69930    0.07263    0.58886    1.000
    O7       O        0.19930    0.67737    0.66114    1.000
    O7       O        0.66114    0.67737    0.19930    1.000
    O7       O        0.58886    0.07263    0.69930    1.000
    O7       O        0.08886    0.17737    0.05070    1.000
    O7       O        0.16114    0.57263    0.55070    1.000
    O7       O        0.19930    0.66114    0.67737    1.000
    O7       O        0.69930    0.58886    0.07263    1.000
    O7       O        0.05070    0.08886    0.17737    1.000
    O7       O        0.55070    0.16114    0.57263    1.000
    O7       O        0.67737    0.19930    0.66114    1.000
    O7       O        0.07263    0.69930    0.58886    1.000
    O7       O        0.17737    0.05070    0.08886    1.000
    O7       O        0.57263    0.55070    0.16114    1.000
    O7       O        0.92737    0.41114    0.30070    1.000
    O7       O        0.32263    0.33886    0.80070    1.000
    O7       O        0.42737    0.83886    0.44930    1.000
    O7       O        0.82263    0.91114    0.94930    1.000
    O7       O        0.91114    0.94930    0.82263    1.000
    O7       O        0.83886    0.44930    0.42737    1.000
    O7       O        0.33886    0.80070    0.32263    1.000
    O7       O        0.41114    0.30070    0.92737    1.000
    O7       O        0.44930    0.42737    0.83886    1.000
    O7       O        0.94930    0.82263    0.91114    1.000
    O7       O        0.30070    0.92737    0.41114    1.000
    O7       O        0.80070    0.32263    0.33886    1.000
    O7       O        0.33886    0.82263    0.30070    1.000
    O7       O        0.41114    0.42737    0.80070    1.000
    O7       O        0.91114    0.32263    0.44930    1.000
    O7       O        0.83886    0.92737    0.94930    1.000
    O7       O        0.80070    0.83886    0.82263    1.000
    O7       O        0.30070    0.91114    0.42737    1.000
    O7       O        0.94930    0.41114    0.32263    1.000
    O7       O        0.44930    0.33886    0.92737    1.000
    O7       O        0.32263    0.30070    0.83886    1.000
    O7       O        0.92737    0.80070    0.91114    1.000
    O7       O        0.82263    0.44930    0.41114    1.000
    O7       O        0.42737    0.94930    0.33886    1.000
    O7       O        0.07263    0.08886    0.19930    1.000
    O7       O        0.67737    0.16114    0.69930    1.000
    O7       O        0.57263    0.66114    0.05070    1.000
    O7       O        0.17737    0.58886    0.55070    1.000
    O7       O        0.08886    0.55070    0.67737    1.000
    O7       O        0.16114    0.05070    0.07263    1.000
    O7       O        0.66114    0.69930    0.17737    1.000
    O7       O        0.58886    0.19930    0.57263    1.000
    O7       O        0.55070    0.07263    0.66114    1.000
    O7       O        0.05070    0.67737    0.58886    1.000
    O7       O        0.69930    0.57263    0.08886    1.000
    O7       O        0.19930    0.17737    0.16114    1.000
    O7       O        0.66114    0.17737    0.69930    1.000
    O7       O        0.58886    0.57263    0.19930    1.000
    O7       O        0.08886    0.67737    0.55070    1.000
    O7       O        0.16114    0.07263    0.05070    1.000
    O7       O        0.19930    0.16114    0.17737    1.000
    O7       O        0.69930    0.08886    0.57263    1.000
    O7       O        0.05070    0.58886    0.67737    1.000
    O7       O        0.55070    0.66114    0.07263    1.000
    O7       O        0.67737    0.69930    0.16114    1.000
    O7       O        0.07263    0.19930    0.08886    1.000
    O7       O        0.17737    0.55070    0.58886    1.000
    O7       O        0.57263    0.05070    0.66114    1.000
    O7       O        0.92737    0.91114    0.80070    1.000
    O7       O        0.32263    0.83886    0.30070    1.000
    O7       O        0.42737    0.33886    0.94930    1.000
    O7       O        0.82263    0.41114    0.44930    1.000
    O7       O        0.91114    0.44930    0.32263    1.000
    O7       O        0.83886    0.94930    0.92737    1.000
    O7       O        0.33886    0.30070    0.82263    1.000
    O7       O        0.41114    0.80070    0.42737    1.000
    O7       O        0.44930    0.92737    0.33886    1.000
    O7       O        0.94930    0.32263    0.41114    1.000
    O7       O        0.30070    0.42737    0.91114    1.000
    O7       O        0.80070    0.82263    0.83886    1.000
    O7       O        0.83886    0.32263    0.30070    1.000
    O7       O        0.91114    0.92737    0.80070    1.000
    O7       O        0.41114    0.82263    0.44930    1.000
    O7       O        0.33886    0.42737    0.94930    1.000
    O7       O        0.30070    0.33886    0.82263    1.000
    O7       O        0.80070    0.41114    0.42737    1.000
    O7       O        0.44930    0.91114    0.32263    1.000
    O7       O        0.94930    0.83886    0.92737    1.000
    O7       O        0.82263    0.80070    0.83886    1.000
    O7       O        0.42737    0.30070    0.91114    1.000
    O7       O        0.32263    0.94930    0.41114    1.000
    O7       O        0.92737    0.44930    0.33886    1.000
    O7       O        0.57263    0.58886    0.19930    1.000
    O7       O        0.17737    0.66114    0.69930    1.000
    O7       O        0.07263    0.16114    0.05070    1.000
    O7       O        0.67737    0.08886    0.55070    1.000
    O7       O        0.58886    0.05070    0.67737    1.000
    O7       O        0.66114    0.55070    0.07263    1.000
    O7       O        0.16114    0.19930    0.17737    1.000
    O7       O        0.08886    0.69930    0.57263    1.000
    O7       O        0.05070    0.57263    0.66114    1.000
    O7       O        0.55070    0.17737    0.58886    1.000
    O7       O        0.19930    0.07263    0.08886    1.000
    O7       O        0.69930    0.67737    0.16114    1.000
    O7       O        0.16114    0.67737    0.69930    1.000
    O7       O        0.08886    0.07263    0.19930    1.000
    O7       O        0.58886    0.17737    0.55070    1.000
    O7       O        0.66114    0.57263    0.05070    1.000
    O7       O        0.69930    0.66114    0.17737    1.000
    O7       O        0.19930    0.58886    0.57263    1.000
    O7       O        0.55070    0.08886    0.67737    1.000
    O7       O        0.05070    0.16114    0.07263    1.000
    O7       O        0.17737    0.19930    0.16114    1.000
    O7       O        0.57263    0.69930    0.08886    1.000
    O7       O        0.67737    0.05070    0.58886    1.000
    O7       O        0.07263    0.55070    0.66114    1.000
    O7       O        0.42737    0.41114    0.80070    1.000
    O7       O        0.82263    0.33886    0.30070    1.000
    O7       O        0.92737    0.83886    0.94930    1.000
    O7       O        0.32263    0.91114    0.44930    1.000
    O7       O        0.41114    0.94930    0.32263    1.000
    O7       O        0.33886    0.44930    0.92737    1.000
    O7       O        0.83886    0.80070    0.82263    1.000
    O7       O        0.91114    0.30070    0.42737    1.000
    O7       O        0.94930    0.42737    0.33886    1.000
    O7       O        0.44930    0.82263    0.41114    1.000
    O7       O        0.80070    0.92737    0.91114    1.000
    O7       O        0.30070    0.32263    0.83886    1.000
    O7       O        0.83886    0.82263    0.80070    1.000
    O7       O        0.91114    0.42737    0.30070    1.000
    O7       O        0.41114    0.32263    0.94930    1.000
    O7       O        0.33886    0.92737    0.44930    1.000
    O7       O        0.30070    0.83886    0.32263    1.000
    O7       O        0.80070    0.91114    0.92737    1.000
    O7       O        0.44930    0.41114    0.82263    1.000
    O7       O        0.94930    0.33886    0.42737    1.000
    O7       O        0.82263    0.30070    0.33886    1.000
    O7       O        0.42737    0.80070    0.41114    1.000
    O7       O        0.32263    0.44930    0.91114    1.000
    O7       O        0.92737    0.94930    0.83886    1.000
    O7       O        0.57263    0.08886    0.69930    1.000
    O7       O        0.17737    0.16114    0.19930    1.000
    O7       O        0.07263    0.66114    0.55070    1.000
    O7       O        0.67737    0.58886    0.05070    1.000
    O7       O        0.58886    0.55070    0.17737    1.000
    O7       O        0.66114    0.05070    0.57263    1.000
    O7       O        0.16114    0.69930    0.67737    1.000
    O7       O        0.08886    0.19930    0.07263    1.000
    O7       O        0.05070    0.07263    0.16114    1.000
    O7       O        0.55070    0.67737    0.08886    1.000
    O7       O        0.19930    0.57263    0.58886    1.000
    O7       O        0.69930    0.17737    0.66114    1.000
    O7       O        0.16114    0.17737    0.19930    1.000
    O7       O        0.08886    0.57263    0.69930    1.000
    O7       O        0.58886    0.67737    0.05070    1.000
    O7       O        0.66114    0.07263    0.55070    1.000
    O7       O        0.69930    0.16114    0.67737    1.000
    O7       O        0.19930    0.08886    0.07263    1.000
    O7       O        0.55070    0.58886    0.17737    1.000
    O7       O        0.05070    0.66114    0.57263    1.000
    O7       O        0.17737    0.69930    0.66114    1.000
    O7       O        0.57263    0.19930    0.58886    1.000
    O7       O        0.67737    0.55070    0.08886    1.000
    O7       O        0.07263    0.05070    0.16114    1.000
    O7       O        0.42737    0.91114    0.30070    1.000
    O7       O        0.82263    0.83886    0.80070    1.000
    O7       O        0.92737    0.33886    0.44930    1.000
    O7       O        0.32263    0.41114    0.94930    1.000
    O7       O        0.41114    0.44930    0.82263    1.000
    O7       O        0.33886    0.94930    0.42737    1.000
    O7       O        0.83886    0.30070    0.32263    1.000
    O7       O        0.91114    0.80070    0.92737    1.000
    O7       O        0.94930    0.92737    0.83886    1.000
    O7       O        0.44930    0.32263    0.91114    1.000
    O7       O        0.80070    0.42737    0.41114    1.000
    O7       O        0.30070    0.82263    0.33886    1.000
    O8       O        0.52878    0.97584    0.32068    1.000
    O8       O        0.02878    0.77416    0.92932    1.000
    O8       O        0.72122    0.47584    0.42932    1.000
    O8       O        0.82068    0.22122    0.27416    1.000
    O8       O        0.32068    0.52878    0.97584    1.000
    O8       O        0.92932    0.02878    0.77416    1.000
    O8       O        0.42932    0.72122    0.47584    1.000
    O8       O        0.27416    0.82068    0.22122    1.000
    O8       O        0.97584    0.32068    0.52878    1.000
    O8       O        0.77416    0.92932    0.02878    1.000
    O8       O        0.47584    0.42932    0.72122    1.000
    O8       O        0.02416    0.47122    0.67932    1.000
    O8       O        0.72584    0.77878    0.17932    1.000
    O8       O        0.52416    0.27878    0.57068    1.000
    O8       O        0.22584    0.97122    0.07068    1.000
    O8       O        0.97122    0.07068    0.22584    1.000
    O8       O        0.27878    0.57068    0.52416    1.000
    O8       O        0.77878    0.17932    0.72584    1.000
    O8       O        0.47122    0.67932    0.02416    1.000
    O8       O        0.57068    0.52416    0.27878    1.000
    O8       O        0.07068    0.22584    0.97122    1.000
    O8       O        0.67932    0.02416    0.47122    1.000
    O8       O        0.17932    0.72584    0.77878    1.000
    O8       O        0.77878    0.72584    0.17932    1.000
    O8       O        0.47122    0.02416    0.67932    1.000
    O8       O        0.97122    0.22584    0.07068    1.000
    O8       O        0.27878    0.52416    0.57068    1.000
    O8       O        0.17932    0.77878    0.72584    1.000
    O8       O        0.67932    0.47122    0.02416    1.000
    O8       O        0.07068    0.97122    0.22584    1.000
    O8       O        0.57068    0.27878    0.52416    1.000
    O8       O        0.72584    0.17932    0.77878    1.000
    O8       O        0.02416    0.67932    0.47122    1.000
    O8       O        0.22584    0.07068    0.97122    1.000
    O8       O        0.52416    0.57068    0.27878    1.000
    O8       O        0.97584    0.52878    0.32068    1.000
    O8       O        0.27416    0.22122    0.82068    1.000
    O8       O        0.47584    0.72122    0.42932    1.000
    O8       O        0.77416    0.02878    0.92932    1.000
    O8       O        0.02878    0.92932    0.77416    1.000
    O8       O        0.72122    0.42932    0.47584    1.000
    O8       O        0.22122    0.82068    0.27416    1.000
    O8       O        0.52878    0.32068    0.97584    1.000
    O8       O        0.42932    0.47584    0.72122    1.000
    O8       O        0.92932    0.77416    0.02878    1.000
    O8       O        0.32068    0.97584    0.52878    1.000
    O8       O        0.82068    0.27416    0.22122    1.000
    O8       O        0.22122    0.77416    0.32068    1.000
    O8       O        0.52878    0.47584    0.82068    1.000
    O8       O        0.02878    0.27416    0.42932    1.000
    O8       O        0.72122    0.97584    0.92932    1.000
    O8       O        0.82068    0.72122    0.77416    1.000
    O8       O        0.32068    0.02878    0.47584    1.000
    O8       O        0.92932    0.52878    0.27416    1.000
    O8       O        0.42932    0.22122    0.97584    1.000
    O8       O        0.27416    0.32068    0.72122    1.000
    O8       O        0.97584    0.82068    0.02878    1.000
    O8       O        0.77416    0.42932    0.52878    1.000
    O8       O        0.47584    0.92932    0.22122    1.000
    O8       O        0.02416    0.97122    0.17932    1.000
    O8       O        0.72584    0.27878    0.67932    1.000
    O8       O        0.52416    0.77878    0.07068    1.000
    O8       O        0.22584    0.47122    0.57068    1.000
    O8       O        0.97122    0.57068    0.72584    1.000
    O8       O        0.27878    0.07068    0.02416    1.000
    O8       O        0.77878    0.67932    0.22584    1.000
    O8       O        0.47122    0.17932    0.52416    1.000
    O8       O        0.57068    0.02416    0.77878    1.000
    O8       O        0.07068    0.72584    0.47122    1.000
    O8       O        0.67932    0.52416    0.97122    1.000
    O8       O        0.17932    0.22584    0.27878    1.000
    O8       O        0.77878    0.22584    0.67932    1.000
    O8       O        0.47122    0.52416    0.17932    1.000
    O8       O        0.97122    0.72584    0.57068    1.000
    O8       O        0.27878    0.02416    0.07068    1.000
    O8       O        0.17932    0.27878    0.22584    1.000
    O8       O        0.67932    0.97122    0.52416    1.000
    O8       O        0.07068    0.47122    0.72584    1.000
    O8       O        0.57068    0.77878    0.02416    1.000
    O8       O        0.72584    0.67932    0.27878    1.000
    O8       O        0.02416    0.17932    0.97122    1.000
    O8       O        0.22584    0.57068    0.47122    1.000
    O8       O        0.52416    0.07068    0.77878    1.000
    O8       O        0.97584    0.02878    0.82068    1.000
    O8       O        0.27416    0.72122    0.32068    1.000
    O8       O        0.47584    0.22122    0.92932    1.000
    O8       O        0.77416    0.52878    0.42932    1.000
    O8       O        0.02878    0.42932    0.27416    1.000
    O8       O        0.72122    0.92932    0.97584    1.000
    O8       O        0.22122    0.32068    0.77416    1.000
    O8       O        0.52878    0.82068    0.47584    1.000
    O8       O        0.42932    0.97584    0.22122    1.000
    O8       O        0.92932    0.27416    0.52878    1.000
    O8       O        0.32068    0.47584    0.02878    1.000
    O8       O        0.82068    0.77416    0.72122    1.000
    O8       O        0.72122    0.27416    0.32068    1.000
    O8       O        0.02878    0.97584    0.82068    1.000
    O8       O        0.52878    0.77416    0.42932    1.000
    O8       O        0.22122    0.47584    0.92932    1.000
    O8       O        0.32068    0.22122    0.77416    1.000
    O8       O        0.82068    0.52878    0.47584    1.000
    O8       O        0.42932    0.02878    0.27416    1.000
    O8       O        0.92932    0.72122    0.97584    1.000
    O8       O        0.77416    0.82068    0.72122    1.000
    O8       O        0.47584    0.32068    0.02878    1.000
    O8       O        0.27416    0.92932    0.52878    1.000
    O8       O        0.97584    0.42932    0.22122    1.000
    O8       O        0.52416    0.47122    0.17932    1.000
    O8       O        0.22584    0.77878    0.67932    1.000
    O8       O        0.02416    0.27878    0.07068    1.000
    O8       O        0.72584    0.97122    0.57068    1.000
    O8       O        0.47122    0.07068    0.72584    1.000
    O8       O        0.77878    0.57068    0.02416    1.000
    O8       O        0.27878    0.17932    0.22584    1.000
    O8       O        0.97122    0.67932    0.52416    1.000
    O8       O        0.07068    0.52416    0.77878    1.000
    O8       O        0.57068    0.22584    0.47122    1.000
    O8       O        0.17932    0.02416    0.97122    1.000
    O8       O        0.67932    0.72584    0.27878    1.000
    O8       O        0.27878    0.72584    0.67932    1.000
    O8       O        0.97122    0.02416    0.17932    1.000
    O8       O        0.47122    0.22584    0.57068    1.000
    O8       O        0.77878    0.52416    0.07068    1.000
    O8       O        0.67932    0.77878    0.22584    1.000
    O8       O        0.17932    0.47122    0.52416    1.000
    O8       O        0.57068    0.97122    0.72584    1.000
    O8       O        0.07068    0.27878    0.02416    1.000
    O8       O        0.22584    0.17932    0.27878    1.000
    O8       O        0.52416    0.67932    0.97122    1.000
    O8       O        0.72584    0.07068    0.47122    1.000
    O8       O        0.02416    0.57068    0.77878    1.000
    O8       O        0.47584    0.52878    0.82068    1.000
    O8       O        0.77416    0.22122    0.32068    1.000
    O8       O        0.97584    0.72122    0.92932    1.000
    O8       O        0.27416    0.02878    0.42932    1.000
    O8       O        0.52878    0.92932    0.27416    1.000
    O8       O        0.22122    0.42932    0.97584    1.000
    O8       O        0.72122    0.82068    0.77416    1.000
    O8       O        0.02878    0.32068    0.47584    1.000
    O8       O        0.92932    0.47584    0.22122    1.000
    O8       O        0.42932    0.77416    0.52878    1.000
    O8       O        0.82068    0.97584    0.02878    1.000
    O8       O        0.32068    0.27416    0.72122    1.000
    O8       O        0.72122    0.77416    0.82068    1.000
    O8       O        0.02878    0.47584    0.32068    1.000
    O8       O        0.52878    0.27416    0.92932    1.000
    O8       O        0.22122    0.97584    0.42932    1.000
    O8       O        0.32068    0.72122    0.27416    1.000
    O8       O        0.82068    0.02878    0.97584    1.000
    O8       O        0.42932    0.52878    0.77416    1.000
    O8       O        0.92932    0.22122    0.47584    1.000
    O8       O        0.77416    0.32068    0.22122    1.000
    O8       O        0.47584    0.82068    0.52878    1.000
    O8       O        0.27416    0.42932    0.02878    1.000
    O8       O        0.97584    0.92932    0.72122    1.000
    O8       O        0.52416    0.97122    0.67932    1.000
    O8       O        0.22584    0.27878    0.17932    1.000
    O8       O        0.02416    0.77878    0.57068    1.000
    O8       O        0.72584    0.47122    0.07068    1.000
    O8       O        0.47122    0.57068    0.22584    1.000
    O8       O        0.77878    0.07068    0.52416    1.000
    O8       O        0.27878    0.67932    0.72584    1.000
    O8       O        0.97122    0.17932    0.02416    1.000
    O8       O        0.07068    0.02416    0.27878    1.000
    O8       O        0.57068    0.72584    0.97122    1.000
    O8       O        0.17932    0.52416    0.47122    1.000
    O8       O        0.67932    0.22584    0.77878    1.000
    O8       O        0.27878    0.22584    0.17932    1.000
    O8       O        0.97122    0.52416    0.67932    1.000
    O8       O        0.47122    0.72584    0.07068    1.000
    O8       O        0.77878    0.02416    0.57068    1.000
    O8       O        0.67932    0.27878    0.72584    1.000
    O8       O        0.17932    0.97122    0.02416    1.000
    O8       O        0.57068    0.47122    0.22584    1.000
    O8       O        0.07068    0.77878    0.52416    1.000
    O8       O        0.22584    0.67932    0.77878    1.000
    O8       O        0.52416    0.17932    0.47122    1.000
    O8       O        0.72584    0.57068    0.97122    1.000
    O8       O        0.02416    0.07068    0.27878    1.000
    O8       O        0.47584    0.02878    0.32068    1.000
    O8       O        0.77416    0.72122    0.82068    1.000
    O8       O        0.97584    0.22122    0.42932    1.000
    O8       O        0.27416    0.52878    0.92932    1.000
    O8       O        0.52878    0.42932    0.77416    1.000
    O8       O        0.22122    0.92932    0.47584    1.000
    O8       O        0.72122    0.32068    0.27416    1.000
    O8       O        0.02878    0.82068    0.97584    1.000
    O8       O        0.92932    0.97584    0.72122    1.000
    O8       O        0.42932    0.27416    0.02878    1.000
    O8       O        0.82068    0.47584    0.52878    1.000
    O8       O        0.32068    0.77416    0.22122    1.000
    O9       O        0.53237    0.97805    0.29523    1.000
    O9       O        0.03237    0.77195    0.95477    1.000
    O9       O        0.71763    0.47805    0.45477    1.000
    O9       O        0.79523    0.21763    0.27195    1.000
    O9       O        0.29523    0.53237    0.97805    1.000
    O9       O        0.95477    0.03237    0.77195    1.000
    O9       O        0.45477    0.71763    0.47805    1.000
    O9       O        0.27195    0.79523    0.21763    1.000
    O9       O        0.97805    0.29523    0.53237    1.000
    O9       O        0.77195    0.95477    0.03237    1.000
    O9       O        0.47805    0.45477    0.71763    1.000
    O9       O        0.02195    0.46763    0.70477    1.000
    O9       O        0.72805    0.78237    0.20477    1.000
    O9       O        0.52195    0.28237    0.54523    1.000
    O9       O        0.22805    0.96763    0.04523    1.000
    O9       O        0.96763    0.04523    0.22805    1.000
    O9       O        0.28237    0.54523    0.52195    1.000
    O9       O        0.78237    0.20477    0.72805    1.000
    O9       O        0.46763    0.70477    0.02195    1.000
    O9       O        0.54523    0.52195    0.28237    1.000
    O9       O        0.04523    0.22805    0.96763    1.000
    O9       O        0.70477    0.02195    0.46763    1.000
    O9       O        0.20477    0.72805    0.78237    1.000
    O9       O        0.78237    0.72805    0.20477    1.000
    O9       O        0.46763    0.02195    0.70477    1.000
    O9       O        0.96763    0.22805    0.04523    1.000
    O9       O        0.28237    0.52195    0.54523    1.000
    O9       O        0.20477    0.78237    0.72805    1.000
    O9       O        0.70477    0.46763    0.02195    1.000
    O9       O        0.04523    0.96763    0.22805    1.000
    O9       O        0.54523    0.28237    0.52195    1.000
    O9       O        0.72805    0.20477    0.78237    1.000
    O9       O        0.02195    0.70477    0.46763    1.000
    O9       O        0.22805    0.04523    0.96763    1.000
    O9       O        0.52195    0.54523    0.28237    1.000
    O9       O        0.97805    0.53237    0.29523    1.000
    O9       O        0.27195    0.21763    0.79523    1.000
    O9       O        0.47805    0.71763    0.45477    1.000
    O9       O        0.77195    0.03237    0.95477    1.000
    O9       O        0.03237    0.95477    0.77195    1.000
    O9       O        0.71763    0.45477    0.47805    1.000
    O9       O        0.21763    0.79523    0.27195    1.000
    O9       O        0.53237    0.29523    0.97805    1.000
    O9       O        0.45477    0.47805    0.71763    1.000
    O9       O        0.95477    0.77195    0.03237    1.000
    O9       O        0.29523    0.97805    0.53237    1.000
    O9       O        0.79523    0.27195    0.21763    1.000
    O9       O        0.21763    0.77195    0.29523    1.000
    O9       O        0.53237    0.47805    0.79523    1.000
    O9       O        0.03237    0.27195    0.45477    1.000
    O9       O        0.71763    0.97805    0.95477    1.000
    O9       O        0.79523    0.71763    0.77195    1.000
    O9       O        0.29523    0.03237    0.47805    1.000
    O9       O        0.95477    0.53237    0.27195    1.000
    O9       O        0.45477    0.21763    0.97805    1.000
    O9       O        0.27195    0.29523    0.71763    1.000
    O9       O        0.97805    0.79523    0.03237    1.000
    O9       O        0.77195    0.45477    0.53237    1.000
    O9       O        0.47805    0.95477    0.21763    1.000
    O9       O        0.02195    0.96763    0.20477    1.000
    O9       O        0.72805    0.28237    0.70477    1.000
    O9       O        0.52195    0.78237    0.04523    1.000
    O9       O        0.22805    0.46763    0.54523    1.000
    O9       O        0.96763    0.54523    0.72805    1.000
    O9       O        0.28237    0.04523    0.02195    1.000
    O9       O        0.78237    0.70477    0.22805    1.000
    O9       O        0.46763    0.20477    0.52195    1.000
    O9       O        0.54523    0.02195    0.78237    1.000
    O9       O        0.04523    0.72805    0.46763    1.000
    O9       O        0.70477    0.52195    0.96763    1.000
    O9       O        0.20477    0.22805    0.28237    1.000
    O9       O        0.78237    0.22805    0.70477    1.000
    O9       O        0.46763    0.52195    0.20477    1.000
    O9       O        0.96763    0.72805    0.54523    1.000
    O9       O        0.28237    0.02195    0.04523    1.000
    O9       O        0.20477    0.28237    0.22805    1.000
    O9       O        0.70477    0.96763    0.52195    1.000
    O9       O        0.04523    0.46763    0.72805    1.000
    O9       O        0.54523    0.78237    0.02195    1.000
    O9       O        0.72805    0.70477    0.28237    1.000
    O9       O        0.02195    0.20477    0.96763    1.000
    O9       O        0.22805    0.54523    0.46763    1.000
    O9       O        0.52195    0.04523    0.78237    1.000
    O9       O        0.97805    0.03237    0.79523    1.000
    O9       O        0.27195    0.71763    0.29523    1.000
    O9       O        0.47805    0.21763    0.95477    1.000
    O9       O        0.77195    0.53237    0.45477    1.000
    O9       O        0.03237    0.45477    0.27195    1.000
    O9       O        0.71763    0.95477    0.97805    1.000
    O9       O        0.21763    0.29523    0.77195    1.000
    O9       O        0.53237    0.79523    0.47805    1.000
    O9       O        0.45477    0.97805    0.21763    1.000
    O9       O        0.95477    0.27195    0.53237    1.000
    O9       O        0.29523    0.47805    0.03237    1.000
    O9       O        0.79523    0.77195    0.71763    1.000
    O9       O        0.71763    0.27195    0.29523    1.000
    O9       O        0.03237    0.97805    0.79523    1.000
    O9       O        0.53237    0.77195    0.45477    1.000
    O9       O        0.21763    0.47805    0.95477    1.000
    O9       O        0.29523    0.21763    0.77195    1.000
    O9       O        0.79523    0.53237    0.47805    1.000
    O9       O        0.45477    0.03237    0.27195    1.000
    O9       O        0.95477    0.71763    0.97805    1.000
    O9       O        0.77195    0.79523    0.71763    1.000
    O9       O        0.47805    0.29523    0.03237    1.000
    O9       O        0.27195    0.95477    0.53237    1.000
    O9       O        0.97805    0.45477    0.21763    1.000
    O9       O        0.52195    0.46763    0.20477    1.000
    O9       O        0.22805    0.78237    0.70477    1.000
    O9       O        0.02195    0.28237    0.04523    1.000
    O9       O        0.72805    0.96763    0.54523    1.000
    O9       O        0.46763    0.04523    0.72805    1.000
    O9       O        0.78237    0.54523    0.02195    1.000
    O9       O        0.28237    0.20477    0.22805    1.000
    O9       O        0.96763    0.70477    0.52195    1.000
    O9       O        0.04523    0.52195    0.78237    1.000
    O9       O        0.54523    0.22805    0.46763    1.000
    O9       O        0.20477    0.02195    0.96763    1.000
    O9       O        0.70477    0.72805    0.28237    1.000
    O9       O        0.28237    0.72805    0.70477    1.000
    O9       O        0.96763    0.02195    0.20477    1.000
    O9       O        0.46763    0.22805    0.54523    1.000
    O9       O        0.78237    0.52195    0.04523    1.000
    O9       O        0.70477    0.78237    0.22805    1.000
    O9       O        0.20477    0.46763    0.52195    1.000
    O9       O        0.54523    0.96763    0.72805    1.000
    O9       O        0.04523    0.28237    0.02195    1.000
    O9       O        0.22805    0.20477    0.28237    1.000
    O9       O        0.52195    0.70477    0.96763    1.000
    O9       O        0.72805    0.04523    0.46763    1.000
    O9       O        0.02195    0.54523    0.78237    1.000
    O9       O        0.47805    0.53237    0.79523    1.000
    O9       O        0.77195    0.21763    0.29523    1.000
    O9       O        0.97805    0.71763    0.95477    1.000
    O9       O        0.27195    0.03237    0.45477    1.000
    O9       O        0.53237    0.95477    0.27195    1.000
    O9       O        0.21763    0.45477    0.97805    1.000
    O9       O        0.71763    0.79523    0.77195    1.000
    O9       O        0.03237    0.29523    0.47805    1.000
    O9       O        0.95477    0.47805    0.21763    1.000
    O9       O        0.45477    0.77195    0.53237    1.000
    O9       O        0.79523    0.97805    0.03237    1.000
    O9       O        0.29523    0.27195    0.71763    1.000
    O9       O        0.71763    0.77195    0.79523    1.000
    O9       O        0.03237    0.47805    0.29523    1.000
    O9       O        0.53237    0.27195    0.95477    1.000
    O9       O        0.21763    0.97805    0.45477    1.000
    O9       O        0.29523    0.71763    0.27195    1.000
    O9       O        0.79523    0.03237    0.97805    1.000
    O9       O        0.45477    0.53237    0.77195    1.000
    O9       O        0.95477    0.21763    0.47805    1.000
    O9       O        0.77195    0.29523    0.21763    1.000
    O9       O        0.47805    0.79523    0.53237    1.000
    O9       O        0.27195    0.45477    0.03237    1.000
    O9       O        0.97805    0.95477    0.71763    1.000
    O9       O        0.52195    0.96763    0.70477    1.000
    O9       O        0.22805    0.28237    0.20477    1.000
    O9       O        0.02195    0.78237    0.54523    1.000
    O9       O        0.72805    0.46763    0.04523    1.000
    O9       O        0.46763    0.54523    0.22805    1.000
    O9       O        0.78237    0.04523    0.52195    1.000
    O9       O        0.28237    0.70477    0.72805    1.000
    O9       O        0.96763    0.20477    0.02195    1.000
    O9       O        0.04523    0.02195    0.28237    1.000
    O9       O        0.54523    0.72805    0.96763    1.000
    O9       O        0.20477    0.52195    0.46763    1.000
    O9       O        0.70477    0.22805    0.78237    1.000
    O9       O        0.28237    0.22805    0.20477    1.000
    O9       O        0.96763    0.52195    0.70477    1.000
    O9       O        0.46763    0.72805    0.04523    1.000
    O9       O        0.78237    0.02195    0.54523    1.000
    O9       O        0.70477    0.28237    0.72805    1.000
    O9       O        0.20477    0.96763    0.02195    1.000
    O9       O        0.54523    0.46763    0.22805    1.000
    O9       O        0.04523    0.78237    0.52195    1.000
    O9       O        0.22805    0.70477    0.78237    1.000
    O9       O        0.52195    0.20477    0.46763    1.000
    O9       O        0.72805    0.54523    0.96763    1.000
    O9       O        0.02195    0.04523    0.28237    1.000
    O9       O        0.47805    0.03237    0.29523    1.000
    O9       O        0.77195    0.71763    0.79523    1.000
    O9       O        0.97805    0.21763    0.45477    1.000
    O9       O        0.27195    0.53237    0.95477    1.000
    O9       O        0.53237    0.45477    0.77195    1.000
    O9       O        0.21763    0.95477    0.47805    1.000
    O9       O        0.71763    0.29523    0.27195    1.000
    O9       O        0.03237    0.79523    0.97805    1.000
    O9       O        0.95477    0.97805    0.71763    1.000
    O9       O        0.45477    0.27195    0.03237    1.000
    O9       O        0.79523    0.47805    0.53237    1.000
    O9       O        0.29523    0.77195    0.21763    1.000
    O10      O        0.67299    0.32439    0.98044    1.000
    O10      O        0.17299    0.42561    0.26956    1.000
    O10      O        0.57701    0.82439    0.76956    1.000
    O10      O        0.48044    0.07701    0.92561    1.000
    O10      O        0.98044    0.67299    0.32439    1.000
    O10      O        0.26956    0.17299    0.42561    1.000
    O10      O        0.76956    0.57701    0.82439    1.000
    O10      O        0.92561    0.48044    0.07701    1.000
    O10      O        0.32439    0.98044    0.67299    1.000
    O10      O        0.42561    0.26956    0.17299    1.000
    O10      O        0.82439    0.76956    0.57701    1.000
    O10      O        0.67561    0.32701    0.01956    1.000
    O10      O        0.07439    0.92299    0.51956    1.000
    O10      O        0.17561    0.42299    0.23044    1.000
    O10      O        0.57439    0.82701    0.73044    1.000
    O10      O        0.82701    0.73044    0.57439    1.000
    O10      O        0.42299    0.23044    0.17561    1.000
    O10      O        0.92299    0.51956    0.07439    1.000
    O10      O        0.32701    0.01956    0.67561    1.000
    O10      O        0.23044    0.17561    0.42299    1.000
    O10      O        0.73044    0.57439    0.82701    1.000
    O10      O        0.01956    0.67561    0.32701    1.000
    O10      O        0.51956    0.07439    0.92299    1.000
    O10      O        0.92299    0.07439    0.51956    1.000
    O10      O        0.32701    0.67561    0.01956    1.000
    O10      O        0.82701    0.57439    0.73044    1.000
    O10      O        0.42299    0.17561    0.23044    1.000
    O10      O        0.51956    0.92299    0.07439    1.000
    O10      O        0.01956    0.32701    0.67561    1.000
    O10      O        0.73044    0.82701    0.57439    1.000
    O10      O        0.23044    0.42299    0.17561    1.000
    O10      O        0.07439    0.51956    0.92299    1.000
    O10      O        0.67561    0.01956    0.32701    1.000
    O10      O        0.57439    0.73044    0.82701    1.000
    O10      O        0.17561    0.23044    0.42299    1.000
    O10      O        0.32439    0.67299    0.98044    1.000
    O10      O        0.92561    0.07701    0.48044    1.000
    O10      O        0.82439    0.57701    0.76956    1.000
    O10      O        0.42561    0.17299    0.26956    1.000
    O10      O        0.17299    0.26956    0.42561    1.000
    O10      O        0.57701    0.76956    0.82439    1.000
    O10      O        0.07701    0.48044    0.92561    1.000
    O10      O        0.67299    0.98044    0.32439    1.000
    O10      O        0.76956    0.82439    0.57701    1.000
    O10      O        0.26956    0.42561    0.17299    1.000
    O10      O        0.98044    0.32439    0.67299    1.000
    O10      O        0.48044    0.92561    0.07701    1.000
    O10      O        0.07701    0.42561    0.98044    1.000
    O10      O        0.67299    0.82439    0.48044    1.000
    O10      O        0.17299    0.92561    0.76956    1.000
    O10      O        0.57701    0.32439    0.26956    1.000
    O10      O        0.48044    0.57701    0.42561    1.000
    O10      O        0.98044    0.17299    0.82439    1.000
    O10      O        0.26956    0.67299    0.92561    1.000
    O10      O        0.76956    0.07701    0.32439    1.000
    O10      O        0.92561    0.98044    0.57701    1.000
    O10      O        0.32439    0.48044    0.17299    1.000
    O10      O        0.42561    0.76956    0.67299    1.000
    O10      O        0.82439    0.26956    0.07701    1.000
    O10      O        0.67561    0.82701    0.51956    1.000
    O10      O        0.07439    0.42299    0.01956    1.000
    O10      O        0.17561    0.92299    0.73044    1.000
    O10      O        0.57439    0.32701    0.23044    1.000
    O10      O        0.82701    0.23044    0.07439    1.000
    O10      O        0.42299    0.73044    0.67561    1.000
    O10      O        0.92299    0.01956    0.57439    1.000
    O10      O        0.32701    0.51956    0.17561    1.000
    O10      O        0.23044    0.67561    0.92299    1.000
    O10      O        0.73044    0.07439    0.32701    1.000
    O10      O        0.01956    0.17561    0.82701    1.000
    O10      O        0.51956    0.57439    0.42299    1.000
    O10      O        0.92299    0.57439    0.01956    1.000
    O10      O        0.32701    0.17561    0.51956    1.000
    O10      O        0.82701    0.07439    0.23044    1.000
    O10      O        0.42299    0.67561    0.73044    1.000
    O10      O        0.51956    0.42299    0.57439    1.000
    O10      O        0.01956    0.82701    0.17561    1.000
    O10      O        0.73044    0.32701    0.07439    1.000
    O10      O        0.23044    0.92299    0.67561    1.000
    O10      O        0.07439    0.01956    0.42299    1.000
    O10      O        0.67561    0.51956    0.82701    1.000
    O10      O        0.57439    0.23044    0.32701    1.000
    O10      O        0.17561    0.73044    0.92299    1.000
    O10      O        0.32439    0.17299    0.48044    1.000
    O10      O        0.92561    0.57701    0.98044    1.000
    O10      O        0.82439    0.07701    0.26956    1.000
    O10      O        0.42561    0.67299    0.76956    1.000
    O10      O        0.17299    0.76956    0.92561    1.000
    O10      O        0.57701    0.26956    0.32439    1.000
    O10      O        0.07701    0.98044    0.42561    1.000
    O10      O        0.67299    0.48044    0.82439    1.000
    O10      O        0.76956    0.32439    0.07701    1.000
    O10      O        0.26956    0.92561    0.67299    1.000
    O10      O        0.98044    0.82439    0.17299    1.000
    O10      O        0.48044    0.42561    0.57701    1.000
    O10      O        0.57701    0.92561    0.98044    1.000
    O10      O        0.17299    0.32439    0.48044    1.000
    O10      O        0.67299    0.42561    0.76956    1.000
    O10      O        0.07701    0.82439    0.26956    1.000
    O10      O        0.98044    0.07701    0.42561    1.000
    O10      O        0.48044    0.67299    0.82439    1.000
    O10      O        0.76956    0.17299    0.92561    1.000
    O10      O        0.26956    0.57701    0.32439    1.000
    O10      O        0.42561    0.48044    0.57701    1.000
    O10      O        0.82439    0.98044    0.17299    1.000
    O10      O        0.92561    0.26956    0.67299    1.000
    O10      O        0.32439    0.76956    0.07701    1.000
    O10      O        0.17561    0.32701    0.51956    1.000
    O10      O        0.57439    0.92299    0.01956    1.000
    O10      O        0.67561    0.42299    0.73044    1.000
    O10      O        0.07439    0.82701    0.23044    1.000
    O10      O        0.32701    0.73044    0.07439    1.000
    O10      O        0.92299    0.23044    0.67561    1.000
    O10      O        0.42299    0.51956    0.57439    1.000
    O10      O        0.82701    0.01956    0.17561    1.000
    O10      O        0.73044    0.17561    0.92299    1.000
    O10      O        0.23044    0.57439    0.32701    1.000
    O10      O        0.51956    0.67561    0.82701    1.000
    O10      O        0.01956    0.07439    0.42299    1.000
    O10      O        0.42299    0.07439    0.01956    1.000
    O10      O        0.82701    0.67561    0.51956    1.000
    O10      O        0.32701    0.57439    0.23044    1.000
    O10      O        0.92299    0.17561    0.73044    1.000
    O10      O        0.01956    0.92299    0.57439    1.000
    O10      O        0.51956    0.32701    0.17561    1.000
    O10      O        0.23044    0.82701    0.07439    1.000
    O10      O        0.73044    0.42299    0.67561    1.000
    O10      O        0.57439    0.51956    0.42299    1.000
    O10      O        0.17561    0.01956    0.82701    1.000
    O10      O        0.07439    0.73044    0.32701    1.000
    O10      O        0.67561    0.23044    0.92299    1.000
    O10      O        0.82439    0.67299    0.48044    1.000
    O10      O        0.42561    0.07701    0.98044    1.000
    O10      O        0.32439    0.57701    0.26956    1.000
    O10      O        0.92561    0.17299    0.76956    1.000
    O10      O        0.67299    0.26956    0.92561    1.000
    O10      O        0.07701    0.76956    0.32439    1.000
    O10      O        0.57701    0.48044    0.42561    1.000
    O10      O        0.17299    0.98044    0.82439    1.000
    O10      O        0.26956    0.82439    0.07701    1.000
    O10      O        0.76956    0.42561    0.67299    1.000
    O10      O        0.48044    0.32439    0.17299    1.000
    O10      O        0.98044    0.92561    0.57701    1.000
    O10      O        0.57701    0.42561    0.48044    1.000
    O10      O        0.17299    0.82439    0.98044    1.000
    O10      O        0.67299    0.92561    0.26956    1.000
    O10      O        0.07701    0.32439    0.76956    1.000
    O10      O        0.98044    0.57701    0.92561    1.000
    O10      O        0.48044    0.17299    0.32439    1.000
    O10      O        0.76956    0.67299    0.42561    1.000
    O10      O        0.26956    0.07701    0.82439    1.000
    O10      O        0.42561    0.98044    0.07701    1.000
    O10      O        0.82439    0.48044    0.67299    1.000
    O10      O        0.92561    0.76956    0.17299    1.000
    O10      O        0.32439    0.26956    0.57701    1.000
    O10      O        0.17561    0.82701    0.01956    1.000
    O10      O        0.57439    0.42299    0.51956    1.000
    O10      O        0.67561    0.92299    0.23044    1.000
    O10      O        0.07439    0.32701    0.73044    1.000
    O10      O        0.32701    0.23044    0.57439    1.000
    O10      O        0.92299    0.73044    0.17561    1.000
    O10      O        0.42299    0.01956    0.07439    1.000
    O10      O        0.82701    0.51956    0.67561    1.000
    O10      O        0.73044    0.67561    0.42299    1.000
    O10      O        0.23044    0.07439    0.82701    1.000
    O10      O        0.51956    0.17561    0.32701    1.000
    O10      O        0.01956    0.57439    0.92299    1.000
    O10      O        0.42299    0.57439    0.51956    1.000
    O10      O        0.82701    0.17561    0.01956    1.000
    O10      O        0.32701    0.07439    0.73044    1.000
    O10      O        0.92299    0.67561    0.23044    1.000
    O10      O        0.01956    0.42299    0.07439    1.000
    O10      O        0.51956    0.82701    0.67561    1.000
    O10      O        0.23044    0.32701    0.57439    1.000
    O10      O        0.73044    0.92299    0.17561    1.000
    O10      O        0.57439    0.01956    0.92299    1.000
    O10      O        0.17561    0.51956    0.32701    1.000
    O10      O        0.07439    0.23044    0.82701    1.000
    O10      O        0.67561    0.73044    0.42299    1.000
    O10      O        0.82439    0.17299    0.98044    1.000
    O10      O        0.42561    0.57701    0.48044    1.000
    O10      O        0.32439    0.07701    0.76956    1.000
    O10      O        0.92561    0.67299    0.26956    1.000
    O10      O        0.67299    0.76956    0.42561    1.000
    O10      O        0.07701    0.26956    0.82439    1.000
    O10      O        0.57701    0.98044    0.92561    1.000
    O10      O        0.17299    0.48044    0.32439    1.000
    O10      O        0.26956    0.32439    0.57701    1.000
    O10      O        0.76956    0.92561    0.17299    1.000
    O10      O        0.48044    0.82439    0.67299    1.000
    O10      O        0.98044    0.42561    0.07701    1.000
    O11      O        0.66224    0.30997    0.99692    1.000
    O11      O        0.16224    0.44003    0.25308    1.000
    O11      O        0.58776    0.80997    0.75308    1.000
    O11      O        0.49692    0.08776    0.94003    1.000
    O11      O        0.99692    0.66224    0.30997    1.000
    O11      O        0.25308    0.16224    0.44003    1.000
    O11      O        0.75308    0.58776    0.80997    1.000
    O11      O        0.94003    0.49692    0.08776    1.000
    O11      O        0.30997    0.99692    0.66224    1.000
    O11      O        0.44003    0.25308    0.16224    1.000
    O11      O        0.80997    0.75308    0.58776    1.000
    O11      O        0.69003    0.33776    0.00308    1.000
    O11      O        0.05997    0.91224    0.50308    1.000
    O11      O        0.19003    0.41224    0.24692    1.000
    O11      O        0.55997    0.83776    0.74692    1.000
    O11      O        0.83776    0.74692    0.55997    1.000
    O11      O        0.41224    0.24692    0.19003    1.000
    O11      O        0.91224    0.50308    0.05997    1.000
    O11      O        0.33776    0.00308    0.69003    1.000
    O11      O        0.24692    0.19003    0.41224    1.000
    O11      O        0.74692    0.55997    0.83776    1.000
    O11      O        0.00308    0.69003    0.33776    1.000
    O11      O        0.50308    0.05997    0.91224    1.000
    O11      O        0.91224    0.05997    0.50308    1.000
    O11      O        0.33776    0.69003    0.00308    1.000
    O11      O        0.83776    0.55997    0.74692    1.000
    O11      O        0.41224    0.19003    0.24692    1.000
    O11      O        0.50308    0.91224    0.05997    1.000
    O11      O        0.00308    0.33776    0.69003    1.000
    O11      O        0.74692    0.83776    0.55997    1.000
    O11      O        0.24692    0.41224    0.19003    1.000
    O11      O        0.05997    0.50308    0.91224    1.000
    O11      O        0.69003    0.00308    0.33776    1.000
    O11      O        0.55997    0.74692    0.83776    1.000
    O11      O        0.19003    0.24692    0.41224    1.000
    O11      O        0.30997    0.66224    0.99692    1.000
    O11      O        0.94003    0.08776    0.49692    1.000
    O11      O        0.80997    0.58776    0.75308    1.000
    O11      O        0.44003    0.16224    0.25308    1.000
    O11      O        0.16224    0.25308    0.44003    1.000
    O11      O        0.58776    0.75308    0.80997    1.000
    O11      O        0.08776    0.49692    0.94003    1.000
    O11      O        0.66224    0.99692    0.30997    1.000
    O11      O        0.75308    0.80997    0.58776    1.000
    O11      O        0.25308    0.44003    0.16224    1.000
    O11      O        0.99692    0.30997    0.66224    1.000
    O11      O        0.49692    0.94003    0.08776    1.000
    O11      O        0.08776    0.44003    0.99692    1.000
    O11      O        0.66224    0.80997    0.49692    1.000
    O11      O        0.16224    0.94003    0.75308    1.000
    O11      O        0.58776    0.30997    0.25308    1.000
    O11      O        0.49692    0.58776    0.44003    1.000
    O11      O        0.99692    0.16224    0.80997    1.000
    O11      O        0.25308    0.66224    0.94003    1.000
    O11      O        0.75308    0.08776    0.30997    1.000
    O11      O        0.94003    0.99692    0.58776    1.000
    O11      O        0.30997    0.49692    0.16224    1.000
    O11      O        0.44003    0.75308    0.66224    1.000
    O11      O        0.80997    0.25308    0.08776    1.000
    O11      O        0.69003    0.83776    0.50308    1.000
    O11      O        0.05997    0.41224    0.00308    1.000
    O11      O        0.19003    0.91224    0.74692    1.000
    O11      O        0.55997    0.33776    0.24692    1.000
    O11      O        0.83776    0.24692    0.05997    1.000
    O11      O        0.41224    0.74692    0.69003    1.000
    O11      O        0.91224    0.00308    0.55997    1.000
    O11      O        0.33776    0.50308    0.19003    1.000
    O11      O        0.24692    0.69003    0.91224    1.000
    O11      O        0.74692    0.05997    0.33776    1.000
    O11      O        0.00308    0.19003    0.83776    1.000
    O11      O        0.50308    0.55997    0.41224    1.000
    O11      O        0.91224    0.55997    0.00308    1.000
    O11      O        0.33776    0.19003    0.50308    1.000
    O11      O        0.83776    0.05997    0.24692    1.000
    O11      O        0.41224    0.69003    0.74692    1.000
    O11      O        0.50308    0.41224    0.55997    1.000
    O11      O        0.00308    0.83776    0.19003    1.000
    O11      O        0.74692    0.33776    0.05997    1.000
    O11      O        0.24692    0.91224    0.69003    1.000
    O11      O        0.05997    0.00308    0.41224    1.000
    O11      O        0.69003    0.50308    0.83776    1.000
    O11      O        0.55997    0.24692    0.33776    1.000
    O11      O        0.19003    0.74692    0.91224    1.000
    O11      O        0.30997    0.16224    0.49692    1.000
    O11      O        0.94003    0.58776    0.99692    1.000
    O11      O        0.80997    0.08776    0.25308    1.000
    O11      O        0.44003    0.66224    0.75308    1.000
    O11      O        0.16224    0.75308    0.94003    1.000
    O11      O        0.58776    0.25308    0.30997    1.000
    O11      O        0.08776    0.99692    0.44003    1.000
    O11      O        0.66224    0.49692    0.80997    1.000
    O11      O        0.75308    0.30997    0.08776    1.000
    O11      O        0.25308    0.94003    0.66224    1.000
    O11      O        0.99692    0.80997    0.16224    1.000
    O11      O        0.49692    0.44003    0.58776    1.000
    O11      O        0.58776    0.94003    0.99692    1.000
    O11      O        0.16224    0.30997    0.49692    1.000
    O11      O        0.66224    0.44003    0.75308    1.000
    O11      O        0.08776    0.80997    0.25308    1.000
    O11      O        0.99692    0.08776    0.44003    1.000
    O11      O        0.49692    0.66224    0.80997    1.000
    O11      O        0.75308    0.16224    0.94003    1.000
    O11      O        0.25308    0.58776    0.30997    1.000
    O11      O        0.44003    0.49692    0.58776    1.000
    O11      O        0.80997    0.99692    0.16224    1.000
    O11      O        0.94003    0.25308    0.66224    1.000
    O11      O        0.30997    0.75308    0.08776    1.000
    O11      O        0.19003    0.33776    0.50308    1.000
    O11      O        0.55997    0.91224    0.00308    1.000
    O11      O        0.69003    0.41224    0.74692    1.000
    O11      O        0.05997    0.83776    0.24692    1.000
    O11      O        0.33776    0.74692    0.05997    1.000
    O11      O        0.91224    0.24692    0.69003    1.000
    O11      O        0.41224    0.50308    0.55997    1.000
    O11      O        0.83776    0.00308    0.19003    1.000
    O11      O        0.74692    0.19003    0.91224    1.000
    O11      O        0.24692    0.55997    0.33776    1.000
    O11      O        0.50308    0.69003    0.83776    1.000
    O11      O        0.00308    0.05997    0.41224    1.000
    O11      O        0.41224    0.05997    0.00308    1.000
    O11      O        0.83776    0.69003    0.50308    1.000
    O11      O        0.33776    0.55997    0.24692    1.000
    O11      O        0.91224    0.19003    0.74692    1.000
    O11      O        0.00308    0.91224    0.55997    1.000
    O11      O        0.50308    0.33776    0.19003    1.000
    O11      O        0.24692    0.83776    0.05997    1.000
    O11      O        0.74692    0.41224    0.69003    1.000
    O11      O        0.55997    0.50308    0.41224    1.000
    O11      O        0.19003    0.00308    0.83776    1.000
    O11      O        0.05997    0.74692    0.33776    1.000
    O11      O        0.69003    0.24692    0.91224    1.000
    O11      O        0.80997    0.66224    0.49692    1.000
    O11      O        0.44003    0.08776    0.99692    1.000
    O11      O        0.30997    0.58776    0.25308    1.000
    O11      O        0.94003    0.16224    0.75308    1.000
    O11      O        0.66224    0.25308    0.94003    1.000
    O11      O        0.08776    0.75308    0.30997    1.000
    O11      O        0.58776    0.49692    0.44003    1.000
    O11      O        0.16224    0.99692    0.80997    1.000
    O11      O        0.25308    0.80997    0.08776    1.000
    O11      O        0.75308    0.44003    0.66224    1.000
    O11      O        0.49692    0.30997    0.16224    1.000
    O11      O        0.99692    0.94003    0.58776    1.000
    O11      O        0.58776    0.44003    0.49692    1.000
    O11      O        0.16224    0.80997    0.99692    1.000
    O11      O        0.66224    0.94003    0.25308    1.000
    O11      O        0.08776    0.30997    0.75308    1.000
    O11      O        0.99692    0.58776    0.94003    1.000
    O11      O        0.49692    0.16224    0.30997    1.000
    O11      O        0.75308    0.66224    0.44003    1.000
    O11      O        0.25308    0.08776    0.80997    1.000
    O11      O        0.44003    0.99692    0.08776    1.000
    O11      O        0.80997    0.49692    0.66224    1.000
    O11      O        0.94003    0.75308    0.16224    1.000
    O11      O        0.30997    0.25308    0.58776    1.000
    O11      O        0.19003    0.83776    0.00308    1.000
    O11      O        0.55997    0.41224    0.50308    1.000
    O11      O        0.69003    0.91224    0.24692    1.000
    O11      O        0.05997    0.33776    0.74692    1.000
    O11      O        0.33776    0.24692    0.55997    1.000
    O11      O        0.91224    0.74692    0.19003    1.000
    O11      O        0.41224    0.00308    0.05997    1.000
    O11      O        0.83776    0.50308    0.69003    1.000
    O11      O        0.74692    0.69003    0.41224    1.000
    O11      O        0.24692    0.05997    0.83776    1.000
    O11      O        0.50308    0.19003    0.33776    1.000
    O11      O        0.00308    0.55997    0.91224    1.000
    O11      O        0.41224    0.55997    0.50308    1.000
    O11      O        0.83776    0.19003    0.00308    1.000
    O11      O        0.33776    0.05997    0.74692    1.000
    O11      O        0.91224    0.69003    0.24692    1.000
    O11      O        0.00308    0.41224    0.05997    1.000
    O11      O        0.50308    0.83776    0.69003    1.000
    O11      O        0.24692    0.33776    0.55997    1.000
    O11      O        0.74692    0.91224    0.19003    1.000
    O11      O        0.55997    0.00308    0.91224    1.000
    O11      O        0.19003    0.50308    0.33776    1.000
    O11      O        0.05997    0.24692    0.83776    1.000
    O11      O        0.69003    0.74692    0.41224    1.000
    O11      O        0.80997    0.16224    0.99692    1.000
    O11      O        0.44003    0.58776    0.49692    1.000
    O11      O        0.30997    0.08776    0.75308    1.000
    O11      O        0.94003    0.66224    0.25308    1.000
    O11      O        0.66224    0.75308    0.44003    1.000
    O11      O        0.08776    0.25308    0.80997    1.000
    O11      O        0.58776    0.99692    0.94003    1.000
    O11      O        0.16224    0.49692    0.30997    1.000
    O11      O        0.25308    0.30997    0.58776    1.000
    O11      O        0.75308    0.94003    0.16224    1.000
    O11      O        0.49692    0.80997    0.66224    1.000
    O11      O        0.99692    0.44003    0.08776    1.000
    O12      O        0.66242    0.27721    0.89876    1.000
    O12      O        0.16242    0.47279    0.35124    1.000
    O12      O        0.58758    0.77721    0.85124    1.000
    O12      O        0.39876    0.08758    0.97279    1.000
    O12      O        0.89876    0.66242    0.27721    1.000
    O12      O        0.35124    0.16242    0.47279    1.000
    O12      O        0.85124    0.58758    0.77721    1.000
    O12      O        0.97279    0.39876    0.08758    1.000
    O12      O        0.27721    0.89876    0.66242    1.000
    O12      O        0.47279    0.35124    0.16242    1.000
    O12      O        0.77721    0.85124    0.58758    1.000
    O12      O        0.72279    0.33758    0.10124    1.000
    O12      O        0.02721    0.91242    0.60124    1.000
    O12      O        0.22279    0.41242    0.14876    1.000
    O12      O        0.52721    0.83758    0.64876    1.000
    O12      O        0.83758    0.64876    0.52721    1.000
    O12      O        0.41242    0.14876    0.22279    1.000
    O12      O        0.91242    0.60124    0.02721    1.000
    O12      O        0.33758    0.10124    0.72279    1.000
    O12      O        0.14876    0.22279    0.41242    1.000
    O12      O        0.64876    0.52721    0.83758    1.000
    O12      O        0.10124    0.72279    0.33758    1.000
    O12      O        0.60124    0.02721    0.91242    1.000
    O12      O        0.91242    0.02721    0.60124    1.000
    O12      O        0.33758    0.72279    0.10124    1.000
    O12      O        0.83758    0.52721    0.64876    1.000
    O12      O        0.41242    0.22279    0.14876    1.000
    O12      O        0.60124    0.91242    0.02721    1.000
    O12      O        0.10124    0.33758    0.72279    1.000
    O12      O        0.64876    0.83758    0.52721    1.000
    O12      O        0.14876    0.41242    0.22279    1.000
    O12      O        0.02721    0.60124    0.91242    1.000
    O12      O        0.72279    0.10124    0.33758    1.000
    O12      O        0.52721    0.64876    0.83758    1.000
    O12      O        0.22279    0.14876    0.41242    1.000
    O12      O        0.27721    0.66242    0.89876    1.000
    O12      O        0.97279    0.08758    0.39876    1.000
    O12      O        0.77721    0.58758    0.85124    1.000
    O12      O        0.47279    0.16242    0.35124    1.000
    O12      O        0.16242    0.35124    0.47279    1.000
    O12      O        0.58758    0.85124    0.77721    1.000
    O12      O        0.08758    0.39876    0.97279    1.000
    O12      O        0.66242    0.89876    0.27721    1.000
    O12      O        0.85124    0.77721    0.58758    1.000
    O12      O        0.35124    0.47279    0.16242    1.000
    O12      O        0.89876    0.27721    0.66242    1.000
    O12      O        0.39876    0.97279    0.08758    1.000
    O12      O        0.08758    0.47279    0.89876    1.000
    O12      O        0.66242    0.77721    0.39876    1.000
    O12      O        0.16242    0.97279    0.85124    1.000
    O12      O        0.58758    0.27721    0.35124    1.000
    O12      O        0.39876    0.58758    0.47279    1.000
    O12      O        0.89876    0.16242    0.77721    1.000
    O12      O        0.35124    0.66242    0.97279    1.000
    O12      O        0.85124    0.08758    0.27721    1.000
    O12      O        0.97279    0.89876    0.58758    1.000
    O12      O        0.27721    0.39876    0.16242    1.000
    O12      O        0.47279    0.85124    0.66242    1.000
    O12      O        0.77721    0.35124    0.08758    1.000
    O12      O        0.72279    0.83758    0.60124    1.000
    O12      O        0.02721    0.41242    0.10124    1.000
    O12      O        0.22279    0.91242    0.64876    1.000
    O12      O        0.52721    0.33758    0.14876    1.000
    O12      O        0.83758    0.14876    0.02721    1.000
    O12      O        0.41242    0.64876    0.72279    1.000
    O12      O        0.91242    0.10124    0.52721    1.000
    O12      O        0.33758    0.60124    0.22279    1.000
    O12      O        0.14876    0.72279    0.91242    1.000
    O12      O        0.64876    0.02721    0.33758    1.000
    O12      O        0.10124    0.22279    0.83758    1.000
    O12      O        0.60124    0.52721    0.41242    1.000
    O12      O        0.91242    0.52721    0.10124    1.000
    O12      O        0.33758    0.22279    0.60124    1.000
    O12      O        0.83758    0.02721    0.14876    1.000
    O12      O        0.41242    0.72279    0.64876    1.000
    O12      O        0.60124    0.41242    0.52721    1.000
    O12      O        0.10124    0.83758    0.22279    1.000
    O12      O        0.64876    0.33758    0.02721    1.000
    O12      O        0.14876    0.91242    0.72279    1.000
    O12      O        0.02721    0.10124    0.41242    1.000
    O12      O        0.72279    0.60124    0.83758    1.000
    O12      O        0.52721    0.14876    0.33758    1.000
    O12      O        0.22279    0.64876    0.91242    1.000
    O12      O        0.27721    0.16242    0.39876    1.000
    O12      O        0.97279    0.58758    0.89876    1.000
    O12      O        0.77721    0.08758    0.35124    1.000
    O12      O        0.47279    0.66242    0.85124    1.000
    O12      O        0.16242    0.85124    0.97279    1.000
    O12      O        0.58758    0.35124    0.27721    1.000
    O12      O        0.08758    0.89876    0.47279    1.000
    O12      O        0.66242    0.39876    0.77721    1.000
    O12      O        0.85124    0.27721    0.08758    1.000
    O12      O        0.35124    0.97279    0.66242    1.000
    O12      O        0.89876    0.77721    0.16242    1.000
    O12      O        0.39876    0.47279    0.58758    1.000
    O12      O        0.58758    0.97279    0.89876    1.000
    O12      O        0.16242    0.27721    0.39876    1.000
    O12      O        0.66242    0.47279    0.85124    1.000
    O12      O        0.08758    0.77721    0.35124    1.000
    O12      O        0.89876    0.08758    0.47279    1.000
    O12      O        0.39876    0.66242    0.77721    1.000
    O12      O        0.85124    0.16242    0.97279    1.000
    O12      O        0.35124    0.58758    0.27721    1.000
    O12      O        0.47279    0.39876    0.58758    1.000
    O12      O        0.77721    0.89876    0.16242    1.000
    O12      O        0.97279    0.35124    0.66242    1.000
    O12      O        0.27721    0.85124    0.08758    1.000
    O12      O        0.22279    0.33758    0.60124    1.000
    O12      O        0.52721    0.91242    0.10124    1.000
    O12      O        0.72279    0.41242    0.64876    1.000
    O12      O        0.02721    0.83758    0.14876    1.000
    O12      O        0.33758    0.64876    0.02721    1.000
    O12      O        0.91242    0.14876    0.72279    1.000
    O12      O        0.41242    0.60124    0.52721    1.000
    O12      O        0.83758    0.10124    0.22279    1.000
    O12      O        0.64876    0.22279    0.91242    1.000
    O12      O        0.14876    0.52721    0.33758    1.000
    O12      O        0.60124    0.72279    0.83758    1.000
    O12      O        0.10124    0.02721    0.41242    1.000
    O12      O        0.41242    0.02721    0.10124    1.000
    O12      O        0.83758    0.72279    0.60124    1.000
    O12      O        0.33758    0.52721    0.14876    1.000
    O12      O        0.91242    0.22279    0.64876    1.000
    O12      O        0.10124    0.91242    0.52721    1.000
    O12      O        0.60124    0.33758    0.22279    1.000
    O12      O        0.14876    0.83758    0.02721    1.000
    O12      O        0.64876    0.41242    0.72279    1.000
    O12      O        0.52721    0.60124    0.41242    1.000
    O12      O        0.22279    0.10124    0.83758    1.000
    O12      O        0.02721    0.64876    0.33758    1.000
    O12      O        0.72279    0.14876    0.91242    1.000
    O12      O        0.77721    0.66242    0.39876    1.000
    O12      O        0.47279    0.08758    0.89876    1.000
    O12      O        0.27721    0.58758    0.35124    1.000
    O12      O        0.97279    0.16242    0.85124    1.000
    O12      O        0.66242    0.35124    0.97279    1.000
    O12      O        0.08758    0.85124    0.27721    1.000
    O12      O        0.58758    0.39876    0.47279    1.000
    O12      O        0.16242    0.89876    0.77721    1.000
    O12      O        0.35124    0.77721    0.08758    1.000
    O12      O        0.85124    0.47279    0.66242    1.000
    O12      O        0.39876    0.27721    0.16242    1.000
    O12      O        0.89876    0.97279    0.58758    1.000
    O12      O        0.58758    0.47279    0.39876    1.000
    O12      O        0.16242    0.77721    0.89876    1.000
    O12      O        0.66242    0.97279    0.35124    1.000
    O12      O        0.08758    0.27721    0.85124    1.000
    O12      O        0.89876    0.58758    0.97279    1.000
    O12      O        0.39876    0.16242    0.27721    1.000
    O12      O        0.85124    0.66242    0.47279    1.000
    O12      O        0.35124    0.08758    0.77721    1.000
    O12      O        0.47279    0.89876    0.08758    1.000
    O12      O        0.77721    0.39876    0.66242    1.000
    O12      O        0.97279    0.85124    0.16242    1.000
    O12      O        0.27721    0.35124    0.58758    1.000
    O12      O        0.22279    0.83758    0.10124    1.000
    O12      O        0.52721    0.41242    0.60124    1.000
    O12      O        0.72279    0.91242    0.14876    1.000
    O12      O        0.02721    0.33758    0.64876    1.000
    O12      O        0.33758    0.14876    0.52721    1.000
    O12      O        0.91242    0.64876    0.22279    1.000
    O12      O        0.41242    0.10124    0.02721    1.000
    O12      O        0.83758    0.60124    0.72279    1.000
    O12      O        0.64876    0.72279    0.41242    1.000
    O12      O        0.14876    0.02721    0.83758    1.000
    O12      O        0.60124    0.22279    0.33758    1.000
    O12      O        0.10124    0.52721    0.91242    1.000
    O12      O        0.41242    0.52721    0.60124    1.000
    O12      O        0.83758    0.22279    0.10124    1.000
    O12      O        0.33758    0.02721    0.64876    1.000
    O12      O        0.91242    0.72279    0.14876    1.000
    O12      O        0.10124    0.41242    0.02721    1.000
    O12      O        0.60124    0.83758    0.72279    1.000
    O12      O        0.14876    0.33758    0.52721    1.000
    O12      O        0.64876    0.91242    0.22279    1.000
    O12      O        0.52721    0.10124    0.91242    1.000
    O12      O        0.22279    0.60124    0.33758    1.000
    O12      O        0.02721    0.14876    0.83758    1.000
    O12      O        0.72279    0.64876    0.41242    1.000
    O12      O        0.77721    0.16242    0.89876    1.000
    O12      O        0.47279    0.58758    0.39876    1.000
    O12      O        0.27721    0.08758    0.85124    1.000
    O12      O        0.97279    0.66242    0.35124    1.000
    O12      O        0.66242    0.85124    0.47279    1.000
    O12      O        0.08758    0.35124    0.77721    1.000
    O12      O        0.58758    0.89876    0.97279    1.000
    O12      O        0.16242    0.39876    0.27721    1.000
    O12      O        0.35124    0.27721    0.58758    1.000
    O12      O        0.85124    0.97279    0.16242    1.000
    O12      O        0.39876    0.77721    0.66242    1.000
    O12      O        0.89876    0.47279    0.08758    1.000
    O13      O        0.64226    0.27253    0.88451    1.000
    O13      O        0.14226    0.47747    0.36549    1.000
    O13      O        0.60774    0.77253    0.86549    1.000
    O13      O        0.38451    0.10774    0.97747    1.000
    O13      O        0.88451    0.64226    0.27253    1.000
    O13      O        0.36549    0.14226    0.47747    1.000
    O13      O        0.86549    0.60774    0.77253    1.000
    O13      O        0.97747    0.38451    0.10774    1.000
    O13      O        0.27253    0.88451    0.64226    1.000
    O13      O        0.47747    0.36549    0.14226    1.000
    O13      O        0.77253    0.86549    0.60774    1.000
    O13      O        0.72747    0.35774    0.11549    1.000
    O13      O        0.02253    0.89226    0.61549    1.000
    O13      O        0.22747    0.39226    0.13451    1.000
    O13      O        0.52253    0.85774    0.63451    1.000
    O13      O        0.85774    0.63451    0.52253    1.000
    O13      O        0.39226    0.13451    0.22747    1.000
    O13      O        0.89226    0.61549    0.02253    1.000
    O13      O        0.35774    0.11549    0.72747    1.000
    O13      O        0.13451    0.22747    0.39226    1.000
    O13      O        0.63451    0.52253    0.85774    1.000
    O13      O        0.11549    0.72747    0.35774    1.000
    O13      O        0.61549    0.02253    0.89226    1.000
    O13      O        0.89226    0.02253    0.61549    1.000
    O13      O        0.35774    0.72747    0.11549    1.000
    O13      O        0.85774    0.52253    0.63451    1.000
    O13      O        0.39226    0.22747    0.13451    1.000
    O13      O        0.61549    0.89226    0.02253    1.000
    O13      O        0.11549    0.35774    0.72747    1.000
    O13      O        0.63451    0.85774    0.52253    1.000
    O13      O        0.13451    0.39226    0.22747    1.000
    O13      O        0.02253    0.61549    0.89226    1.000
    O13      O        0.72747    0.11549    0.35774    1.000
    O13      O        0.52253    0.63451    0.85774    1.000
    O13      O        0.22747    0.13451    0.39226    1.000
    O13      O        0.27253    0.64226    0.88451    1.000
    O13      O        0.97747    0.10774    0.38451    1.000
    O13      O        0.77253    0.60774    0.86549    1.000
    O13      O        0.47747    0.14226    0.36549    1.000
    O13      O        0.14226    0.36549    0.47747    1.000
    O13      O        0.60774    0.86549    0.77253    1.000
    O13      O        0.10774    0.38451    0.97747    1.000
    O13      O        0.64226    0.88451    0.27253    1.000
    O13      O        0.86549    0.77253    0.60774    1.000
    O13      O        0.36549    0.47747    0.14226    1.000
    O13      O        0.88451    0.27253    0.64226    1.000
    O13      O        0.38451    0.97747    0.10774    1.000
    O13      O        0.10774    0.47747    0.88451    1.000
    O13      O        0.64226    0.77253    0.38451    1.000
    O13      O        0.14226    0.97747    0.86549    1.000
    O13      O        0.60774    0.27253    0.36549    1.000
    O13      O        0.38451    0.60774    0.47747    1.000
    O13      O        0.88451    0.14226    0.77253    1.000
    O13      O        0.36549    0.64226    0.97747    1.000
    O13      O        0.86549    0.10774    0.27253    1.000
    O13      O        0.97747    0.88451    0.60774    1.000
    O13      O        0.27253    0.38451    0.14226    1.000
    O13      O        0.47747    0.86549    0.64226    1.000
    O13      O        0.77253    0.36549    0.10774    1.000
    O13      O        0.72747    0.85774    0.61549    1.000
    O13      O        0.02253    0.39226    0.11549    1.000
    O13      O        0.22747    0.89226    0.63451    1.000
    O13      O        0.52253    0.35774    0.13451    1.000
    O13      O        0.85774    0.13451    0.02253    1.000
    O13      O        0.39226    0.63451    0.72747    1.000
    O13      O        0.89226    0.11549    0.52253    1.000
    O13      O        0.35774    0.61549    0.22747    1.000
    O13      O        0.13451    0.72747    0.89226    1.000
    O13      O        0.63451    0.02253    0.35774    1.000
    O13      O        0.11549    0.22747    0.85774    1.000
    O13      O        0.61549    0.52253    0.39226    1.000
    O13      O        0.89226    0.52253    0.11549    1.000
    O13      O        0.35774    0.22747    0.61549    1.000
    O13      O        0.85774    0.02253    0.13451    1.000
    O13      O        0.39226    0.72747    0.63451    1.000
    O13      O        0.61549    0.39226    0.52253    1.000
    O13      O        0.11549    0.85774    0.22747    1.000
    O13      O        0.63451    0.35774    0.02253    1.000
    O13      O        0.13451    0.89226    0.72747    1.000
    O13      O        0.02253    0.11549    0.39226    1.000
    O13      O        0.72747    0.61549    0.85774    1.000
    O13      O        0.52253    0.13451    0.35774    1.000
    O13      O        0.22747    0.63451    0.89226    1.000
    O13      O        0.27253    0.14226    0.38451    1.000
    O13      O        0.97747    0.60774    0.88451    1.000
    O13      O        0.77253    0.10774    0.36549    1.000
    O13      O        0.47747    0.64226    0.86549    1.000
    O13      O        0.14226    0.86549    0.97747    1.000
    O13      O        0.60774    0.36549    0.27253    1.000
    O13      O        0.10774    0.88451    0.47747    1.000
    O13      O        0.64226    0.38451    0.77253    1.000
    O13      O        0.86549    0.27253    0.10774    1.000
    O13      O        0.36549    0.97747    0.64226    1.000
    O13      O        0.88451    0.77253    0.14226    1.000
    O13      O        0.38451    0.47747    0.60774    1.000
    O13      O        0.60774    0.97747    0.88451    1.000
    O13      O        0.14226    0.27253    0.38451    1.000
    O13      O        0.64226    0.47747    0.86549    1.000
    O13      O        0.10774    0.77253    0.36549    1.000
    O13      O        0.88451    0.10774    0.47747    1.000
    O13      O        0.38451    0.64226    0.77253    1.000
    O13      O        0.86549    0.14226    0.97747    1.000
    O13      O        0.36549    0.60774    0.27253    1.000
    O13      O        0.47747    0.38451    0.60774    1.000
    O13      O        0.77253    0.88451    0.14226    1.000
    O13      O        0.97747    0.36549    0.64226    1.000
    O13      O        0.27253    0.86549    0.10774    1.000
    O13      O        0.22747    0.35774    0.61549    1.000
    O13      O        0.52253    0.89226    0.11549    1.000
    O13      O        0.72747    0.39226    0.63451    1.000
    O13      O        0.02253    0.85774    0.13451    1.000
    O13      O        0.35774    0.63451    0.02253    1.000
    O13      O        0.89226    0.13451    0.72747    1.000
    O13      O        0.39226    0.61549    0.52253    1.000
    O13      O        0.85774    0.11549    0.22747    1.000
    O13      O        0.63451    0.22747    0.89226    1.000
    O13      O        0.13451    0.52253    0.35774    1.000
    O13      O        0.61549    0.72747    0.85774    1.000
    O13      O        0.11549    0.02253    0.39226    1.000
    O13      O        0.39226    0.02253    0.11549    1.000
    O13      O        0.85774    0.72747    0.61549    1.000
    O13      O        0.35774    0.52253    0.13451    1.000
    O13      O        0.89226    0.22747    0.63451    1.000
    O13      O        0.11549    0.89226    0.52253    1.000
    O13      O        0.61549    0.35774    0.22747    1.000
    O13      O        0.13451    0.85774    0.02253    1.000
    O13      O        0.63451    0.39226    0.72747    1.000
    O13      O        0.52253    0.61549    0.39226    1.000
    O13      O        0.22747    0.11549    0.85774    1.000
    O13      O        0.02253    0.63451    0.35774    1.000
    O13      O        0.72747    0.13451    0.89226    1.000
    O13      O        0.77253    0.64226    0.38451    1.000
    O13      O        0.47747    0.10774    0.88451    1.000
    O13      O        0.27253    0.60774    0.36549    1.000
    O13      O        0.97747    0.14226    0.86549    1.000
    O13      O        0.64226    0.36549    0.97747    1.000
    O13      O        0.10774    0.86549    0.27253    1.000
    O13      O        0.60774    0.38451    0.47747    1.000
    O13      O        0.14226    0.88451    0.77253    1.000
    O13      O        0.36549    0.77253    0.10774    1.000
    O13      O        0.86549    0.47747    0.64226    1.000
    O13      O        0.38451    0.27253    0.14226    1.000
    O13      O        0.88451    0.97747    0.60774    1.000
    O13      O        0.60774    0.47747    0.38451    1.000
    O13      O        0.14226    0.77253    0.88451    1.000
    O13      O        0.64226    0.97747    0.36549    1.000
    O13      O        0.10774    0.27253    0.86549    1.000
    O13      O        0.88451    0.60774    0.97747    1.000
    O13      O        0.38451    0.14226    0.27253    1.000
    O13      O        0.86549    0.64226    0.47747    1.000
    O13      O        0.36549    0.10774    0.77253    1.000
    O13      O        0.47747    0.88451    0.10774    1.000
    O13      O        0.77253    0.38451    0.64226    1.000
    O13      O        0.97747    0.86549    0.14226    1.000
    O13      O        0.27253    0.36549    0.60774    1.000
    O13      O        0.22747    0.85774    0.11549    1.000
    O13      O        0.52253    0.39226    0.61549    1.000
    O13      O        0.72747    0.89226    0.13451    1.000
    O13      O        0.02253    0.35774    0.63451    1.000
    O13      O        0.35774    0.13451    0.52253    1.000
    O13      O        0.89226    0.63451    0.22747    1.000
    O13      O        0.39226    0.11549    0.02253    1.000
    O13      O        0.85774    0.61549    0.72747    1.000
    O13      O        0.63451    0.72747    0.39226    1.000
    O13      O        0.13451    0.02253    0.85774    1.000
    O13      O        0.61549    0.22747    0.35774    1.000
    O13      O        0.11549    0.52253    0.89226    1.000
    O13      O        0.39226    0.52253    0.61549    1.000
    O13      O        0.85774    0.22747    0.11549    1.000
    O13      O        0.35774    0.02253    0.63451    1.000
    O13      O        0.89226    0.72747    0.13451    1.000
    O13      O        0.11549    0.39226    0.02253    1.000
    O13      O        0.61549    0.85774    0.72747    1.000
    O13      O        0.13451    0.35774    0.52253    1.000
    O13      O        0.63451    0.89226    0.22747    1.000
    O13      O        0.52253    0.11549    0.89226    1.000
    O13      O        0.22747    0.61549    0.35774    1.000
    O13      O        0.02253    0.13451    0.85774    1.000
    O13      O        0.72747    0.63451    0.39226    1.000
    O13      O        0.77253    0.14226    0.88451    1.000
    O13      O        0.47747    0.60774    0.38451    1.000
    O13      O        0.27253    0.10774    0.86549    1.000
    O13      O        0.97747    0.64226    0.36549    1.000
    O13      O        0.64226    0.86549    0.47747    1.000
    O13      O        0.10774    0.36549    0.77253    1.000
    O13      O        0.60774    0.88451    0.97747    1.000
    O13      O        0.14226    0.38451    0.27253    1.000
    O13      O        0.36549    0.27253    0.60774    1.000
    O13      O        0.86549    0.97747    0.14226    1.000
    O13      O        0.38451    0.77253    0.64226    1.000
    O13      O        0.88451    0.47747    0.10774    1.000
    O14      O        0.64875    0.35189    0.87552    1.000
    O14      O        0.14875    0.39811    0.37448    1.000
    O14      O        0.60125    0.85189    0.87448    1.000
    O14      O        0.37552    0.10125    0.89811    1.000
    O14      O        0.87552    0.64875    0.35189    1.000
    O14      O        0.37448    0.14875    0.39811    1.000
    O14      O        0.87448    0.60125    0.85189    1.000
    O14      O        0.89811    0.37552    0.10125    1.000
    O14      O        0.35189    0.87552    0.64875    1.000
    O14      O        0.39811    0.37448    0.14875    1.000
    O14      O        0.85189    0.87448    0.60125    1.000
    O14      O        0.64811    0.35125    0.12448    1.000
    O14      O        0.10189    0.89875    0.62448    1.000
    O14      O        0.14811    0.39875    0.12552    1.000
    O14      O        0.60189    0.85125    0.62552    1.000
    O14      O        0.85125    0.62552    0.60189    1.000
    O14      O        0.39875    0.12552    0.14811    1.000
    O14      O        0.89875    0.62448    0.10189    1.000
    O14      O        0.35125    0.12448    0.64811    1.000
    O14      O        0.12552    0.14811    0.39875    1.000
    O14      O        0.62552    0.60189    0.85125    1.000
    O14      O        0.12448    0.64811    0.35125    1.000
    O14      O        0.62448    0.10189    0.89875    1.000
    O14      O        0.89875    0.10189    0.62448    1.000
    O14      O        0.35125    0.64811    0.12448    1.000
    O14      O        0.85125    0.60189    0.62552    1.000
    O14      O        0.39875    0.14811    0.12552    1.000
    O14      O        0.62448    0.89875    0.10189    1.000
    O14      O        0.12448    0.35125    0.64811    1.000
    O14      O        0.62552    0.85125    0.60189    1.000
    O14      O        0.12552    0.39875    0.14811    1.000
    O14      O        0.10189    0.62448    0.89875    1.000
    O14      O        0.64811    0.12448    0.35125    1.000
    O14      O        0.60189    0.62552    0.85125    1.000
    O14      O        0.14811    0.12552    0.39875    1.000
    O14      O        0.35189    0.64875    0.87552    1.000
    O14      O        0.89811    0.10125    0.37552    1.000
    O14      O        0.85189    0.60125    0.87448    1.000
    O14      O        0.39811    0.14875    0.37448    1.000
    O14      O        0.14875    0.37448    0.39811    1.000
    O14      O        0.60125    0.87448    0.85189    1.000
    O14      O        0.10125    0.37552    0.89811    1.000
    O14      O        0.64875    0.87552    0.35189    1.000
    O14      O        0.87448    0.85189    0.60125    1.000
    O14      O        0.37448    0.39811    0.14875    1.000
    O14      O        0.87552    0.35189    0.64875    1.000
    O14      O        0.37552    0.89811    0.10125    1.000
    O14      O        0.10125    0.39811    0.87552    1.000
    O14      O        0.64875    0.85189    0.37552    1.000
    O14      O        0.14875    0.89811    0.87448    1.000
    O14      O        0.60125    0.35189    0.37448    1.000
    O14      O        0.37552    0.60125    0.39811    1.000
    O14      O        0.87552    0.14875    0.85189    1.000
    O14      O        0.37448    0.64875    0.89811    1.000
    O14      O        0.87448    0.10125    0.35189    1.000
    O14      O        0.89811    0.87552    0.60125    1.000
    O14      O        0.35189    0.37552    0.14875    1.000
    O14      O        0.39811    0.87448    0.64875    1.000
    O14      O        0.85189    0.37448    0.10125    1.000
    O14      O        0.64811    0.85125    0.62448    1.000
    O14      O        0.10189    0.39875    0.12448    1.000
    O14      O        0.14811    0.89875    0.62552    1.000
    O14      O        0.60189    0.35125    0.12552    1.000
    O14      O        0.85125    0.12552    0.10189    1.000
    O14      O        0.39875    0.62552    0.64811    1.000
    O14      O        0.89875    0.12448    0.60189    1.000
    O14      O        0.35125    0.62448    0.14811    1.000
    O14      O        0.12552    0.64811    0.89875    1.000
    O14      O        0.62552    0.10189    0.35125    1.000
    O14      O        0.12448    0.14811    0.85125    1.000
    O14      O        0.62448    0.60189    0.39875    1.000
    O14      O        0.89875    0.60189    0.12448    1.000
    O14      O        0.35125    0.14811    0.62448    1.000
    O14      O        0.85125    0.10189    0.12552    1.000
    O14      O        0.39875    0.64811    0.62552    1.000
    O14      O        0.62448    0.39875    0.60189    1.000
    O14      O        0.12448    0.85125    0.14811    1.000
    O14      O        0.62552    0.35125    0.10189    1.000
    O14      O        0.12552    0.89875    0.64811    1.000
    O14      O        0.10189    0.12448    0.39875    1.000
    O14      O        0.64811    0.62448    0.85125    1.000
    O14      O        0.60189    0.12552    0.35125    1.000
    O14      O        0.14811    0.62552    0.89875    1.000
    O14      O        0.35189    0.14875    0.37552    1.000
    O14      O        0.89811    0.60125    0.87552    1.000
    O14      O        0.85189    0.10125    0.37448    1.000
    O14      O        0.39811    0.64875    0.87448    1.000
    O14      O        0.14875    0.87448    0.89811    1.000
    O14      O        0.60125    0.37448    0.35189    1.000
    O14      O        0.10125    0.87552    0.39811    1.000
    O14      O        0.64875    0.37552    0.85189    1.000
    O14      O        0.87448    0.35189    0.10125    1.000
    O14      O        0.37448    0.89811    0.64875    1.000
    O14      O        0.87552    0.85189    0.14875    1.000
    O14      O        0.37552    0.39811    0.60125    1.000
    O14      O        0.60125    0.89811    0.87552    1.000
    O14      O        0.14875    0.35189    0.37552    1.000
    O14      O        0.64875    0.39811    0.87448    1.000
    O14      O        0.10125    0.85189    0.37448    1.000
    O14      O        0.87552    0.10125    0.39811    1.000
    O14      O        0.37552    0.64875    0.85189    1.000
    O14      O        0.87448    0.14875    0.89811    1.000
    O14      O        0.37448    0.60125    0.35189    1.000
    O14      O        0.39811    0.37552    0.60125    1.000
    O14      O        0.85189    0.87552    0.14875    1.000
    O14      O        0.89811    0.37448    0.64875    1.000
    O14      O        0.35189    0.87448    0.10125    1.000
    O14      O        0.14811    0.35125    0.62448    1.000
    O14      O        0.60189    0.89875    0.12448    1.000
    O14      O        0.64811    0.39875    0.62552    1.000
    O14      O        0.10189    0.85125    0.12552    1.000
    O14      O        0.35125    0.62552    0.10189    1.000
    O14      O        0.89875    0.12552    0.64811    1.000
    O14      O        0.39875    0.62448    0.60189    1.000
    O14      O        0.85125    0.12448    0.14811    1.000
    O14      O        0.62552    0.14811    0.89875    1.000
    O14      O        0.12552    0.60189    0.35125    1.000
    O14      O        0.62448    0.64811    0.85125    1.000
    O14      O        0.12448    0.10189    0.39875    1.000
    O14      O        0.39875    0.10189    0.12448    1.000
    O14      O        0.85125    0.64811    0.62448    1.000
    O14      O        0.35125    0.60189    0.12552    1.000
    O14      O        0.89875    0.14811    0.62552    1.000
    O14      O        0.12448    0.89875    0.60189    1.000
    O14      O        0.62448    0.35125    0.14811    1.000
    O14      O        0.12552    0.85125    0.10189    1.000
    O14      O        0.62552    0.39875    0.64811    1.000
    O14      O        0.60189    0.62448    0.39875    1.000
    O14      O        0.14811    0.12448    0.85125    1.000
    O14      O        0.10189    0.62552    0.35125    1.000
    O14      O        0.64811    0.12552    0.89875    1.000
    O14      O        0.85189    0.64875    0.37552    1.000
    O14      O        0.39811    0.10125    0.87552    1.000
    O14      O        0.35189    0.60125    0.37448    1.000
    O14      O        0.89811    0.14875    0.87448    1.000
    O14      O        0.64875    0.37448    0.89811    1.000
    O14      O        0.10125    0.87448    0.35189    1.000
    O14      O        0.60125    0.37552    0.39811    1.000
    O14      O        0.14875    0.87552    0.85189    1.000
    O14      O        0.37448    0.85189    0.10125    1.000
    O14      O        0.87448    0.39811    0.64875    1.000
    O14      O        0.37552    0.35189    0.14875    1.000
    O14      O        0.87552    0.89811    0.60125    1.000
    O14      O        0.60125    0.39811    0.37552    1.000
    O14      O        0.14875    0.85189    0.87552    1.000
    O14      O        0.64875    0.89811    0.37448    1.000
    O14      O        0.10125    0.35189    0.87448    1.000
    O14      O        0.87552    0.60125    0.89811    1.000
    O14      O        0.37552    0.14875    0.35189    1.000
    O14      O        0.87448    0.64875    0.39811    1.000
    O14      O        0.37448    0.10125    0.85189    1.000
    O14      O        0.39811    0.87552    0.10125    1.000
    O14      O        0.85189    0.37552    0.64875    1.000
    O14      O        0.89811    0.87448    0.14875    1.000
    O14      O        0.35189    0.37448    0.60125    1.000
    O14      O        0.14811    0.85125    0.12448    1.000
    O14      O        0.60189    0.39875    0.62448    1.000
    O14      O        0.64811    0.89875    0.12552    1.000
    O14      O        0.10189    0.35125    0.62552    1.000
    O14      O        0.35125    0.12552    0.60189    1.000
    O14      O        0.89875    0.62552    0.14811    1.000
    O14      O        0.39875    0.12448    0.10189    1.000
    O14      O        0.85125    0.62448    0.64811    1.000
    O14      O        0.62552    0.64811    0.39875    1.000
    O14      O        0.12552    0.10189    0.85125    1.000
    O14      O        0.62448    0.14811    0.35125    1.000
    O14      O        0.12448    0.60189    0.89875    1.000
    O14      O        0.39875    0.60189    0.62448    1.000
    O14      O        0.85125    0.14811    0.12448    1.000
    O14      O        0.35125    0.10189    0.62552    1.000
    O14      O        0.89875    0.64811    0.12552    1.000
    O14      O        0.12448    0.39875    0.10189    1.000
    O14      O        0.62448    0.85125    0.64811    1.000
    O14      O        0.12552    0.35125    0.60189    1.000
    O14      O        0.62552    0.89875    0.14811    1.000
    O14      O        0.60189    0.12448    0.89875    1.000
    O14      O        0.14811    0.62448    0.35125    1.000
    O14      O        0.10189    0.12552    0.85125    1.000
    O14      O        0.64811    0.62552    0.39875    1.000
    O14      O        0.85189    0.14875    0.87552    1.000
    O14      O        0.39811    0.60125    0.37552    1.000
    O14      O        0.35189    0.10125    0.87448    1.000
    O14      O        0.89811    0.64875    0.37448    1.000
    O14      O        0.64875    0.87448    0.39811    1.000
    O14      O        0.10125    0.37448    0.85189    1.000
    O14      O        0.60125    0.87552    0.89811    1.000
    O14      O        0.14875    0.37552    0.35189    1.000
    O14      O        0.37448    0.35189    0.60125    1.000
    O14      O        0.87448    0.89811    0.14875    1.000
    O14      O        0.37552    0.85189    0.64875    1.000
    O14      O        0.87552    0.39811    0.10125    1.000
    O15      O        0.62708    0.34307    0.86631    1.000
    O15      O        0.12708    0.40693    0.38369    1.000
    O15      O        0.62292    0.84307    0.88369    1.000
    O15      O        0.36631    0.12292    0.90693    1.000
    O15      O        0.86631    0.62708    0.34307    1.000
    O15      O        0.38369    0.12708    0.40693    1.000
    O15      O        0.88369    0.62292    0.84307    1.000
    O15      O        0.90693    0.36631    0.12292    1.000
    O15      O        0.34307    0.86631    0.62708    1.000
    O15      O        0.40693    0.38369    0.12708    1.000
    O15      O        0.84307    0.88369    0.62292    1.000
    O15      O        0.65693    0.37292    0.13369    1.000
    O15      O        0.09307    0.87708    0.63369    1.000
    O15      O        0.15693    0.37708    0.11631    1.000
    O15      O        0.59307    0.87292    0.61631    1.000
    O15      O        0.87292    0.61631    0.59307    1.000
    O15      O        0.37708    0.11631    0.15693    1.000
    O15      O        0.87708    0.63369    0.09307    1.000
    O15      O        0.37292    0.13369    0.65693    1.000
    O15      O        0.11631    0.15693    0.37708    1.000
    O15      O        0.61631    0.59307    0.87292    1.000
    O15      O        0.13369    0.65693    0.37292    1.000
    O15      O        0.63369    0.09307    0.87708    1.000
    O15      O        0.87708    0.09307    0.63369    1.000
    O15      O        0.37292    0.65693    0.13369    1.000
    O15      O        0.87292    0.59307    0.61631    1.000
    O15      O        0.37708    0.15693    0.11631    1.000
    O15      O        0.63369    0.87708    0.09307    1.000
    O15      O        0.13369    0.37292    0.65693    1.000
    O15      O        0.61631    0.87292    0.59307    1.000
    O15      O        0.11631    0.37708    0.15693    1.000
    O15      O        0.09307    0.63369    0.87708    1.000
    O15      O        0.65693    0.13369    0.37292    1.000
    O15      O        0.59307    0.61631    0.87292    1.000
    O15      O        0.15693    0.11631    0.37708    1.000
    O15      O        0.34307    0.62708    0.86631    1.000
    O15      O        0.90693    0.12292    0.36631    1.000
    O15      O        0.84307    0.62292    0.88369    1.000
    O15      O        0.40693    0.12708    0.38369    1.000
    O15      O        0.12708    0.38369    0.40693    1.000
    O15      O        0.62292    0.88369    0.84307    1.000
    O15      O        0.12292    0.36631    0.90693    1.000
    O15      O        0.62708    0.86631    0.34307    1.000
    O15      O        0.88369    0.84307    0.62292    1.000
    O15      O        0.38369    0.40693    0.12708    1.000
    O15      O        0.86631    0.34307    0.62708    1.000
    O15      O        0.36631    0.90693    0.12292    1.000
    O15      O        0.12292    0.40693    0.86631    1.000
    O15      O        0.62708    0.84307    0.36631    1.000
    O15      O        0.12708    0.90693    0.88369    1.000
    O15      O        0.62292    0.34307    0.38369    1.000
    O15      O        0.36631    0.62292    0.40693    1.000
    O15      O        0.86631    0.12708    0.84307    1.000
    O15      O        0.38369    0.62708    0.90693    1.000
    O15      O        0.88369    0.12292    0.34307    1.000
    O15      O        0.90693    0.86631    0.62292    1.000
    O15      O        0.34307    0.36631    0.12708    1.000
    O15      O        0.40693    0.88369    0.62708    1.000
    O15      O        0.84307    0.38369    0.12292    1.000
    O15      O        0.65693    0.87292    0.63369    1.000
    O15      O        0.09307    0.37708    0.13369    1.000
    O15      O        0.15693    0.87708    0.61631    1.000
    O15      O        0.59307    0.37292    0.11631    1.000
    O15      O        0.87292    0.11631    0.09307    1.000
    O15      O        0.37708    0.61631    0.65693    1.000
    O15      O        0.87708    0.13369    0.59307    1.000
    O15      O        0.37292    0.63369    0.15693    1.000
    O15      O        0.11631    0.65693    0.87708    1.000
    O15      O        0.61631    0.09307    0.37292    1.000
    O15      O        0.13369    0.15693    0.87292    1.000
    O15      O        0.63369    0.59307    0.37708    1.000
    O15      O        0.87708    0.59307    0.13369    1.000
    O15      O        0.37292    0.15693    0.63369    1.000
    O15      O        0.87292    0.09307    0.11631    1.000
    O15      O        0.37708    0.65693    0.61631    1.000
    O15      O        0.63369    0.37708    0.59307    1.000
    O15      O        0.13369    0.87292    0.15693    1.000
    O15      O        0.61631    0.37292    0.09307    1.000
    O15      O        0.11631    0.87708    0.65693    1.000
    O15      O        0.09307    0.13369    0.37708    1.000
    O15      O        0.65693    0.63369    0.87292    1.000
    O15      O        0.59307    0.11631    0.37292    1.000
    O15      O        0.15693    0.61631    0.87708    1.000
    O15      O        0.34307    0.12708    0.36631    1.000
    O15      O        0.90693    0.62292    0.86631    1.000
    O15      O        0.84307    0.12292    0.38369    1.000
    O15      O        0.40693    0.62708    0.88369    1.000
    O15      O        0.12708    0.88369    0.90693    1.000
    O15      O        0.62292    0.38369    0.34307    1.000
    O15      O        0.12292    0.86631    0.40693    1.000
    O15      O        0.62708    0.36631    0.84307    1.000
    O15      O        0.88369    0.34307    0.12292    1.000
    O15      O        0.38369    0.90693    0.62708    1.000
    O15      O        0.86631    0.84307    0.12708    1.000
    O15      O        0.36631    0.40693    0.62292    1.000
    O15      O        0.62292    0.90693    0.86631    1.000
    O15      O        0.12708    0.34307    0.36631    1.000
    O15      O        0.62708    0.40693    0.88369    1.000
    O15      O        0.12292    0.84307    0.38369    1.000
    O15      O        0.86631    0.12292    0.40693    1.000
    O15      O        0.36631    0.62708    0.84307    1.000
    O15      O        0.88369    0.12708    0.90693    1.000
    O15      O        0.38369    0.62292    0.34307    1.000
    O15      O        0.40693    0.36631    0.62292    1.000
    O15      O        0.84307    0.86631    0.12708    1.000
    O15      O        0.90693    0.38369    0.62708    1.000
    O15      O        0.34307    0.88369    0.12292    1.000
    O15      O        0.15693    0.37292    0.63369    1.000
    O15      O        0.59307    0.87708    0.13369    1.000
    O15      O        0.65693    0.37708    0.61631    1.000
    O15      O        0.09307    0.87292    0.11631    1.000
    O15      O        0.37292    0.61631    0.09307    1.000
    O15      O        0.87708    0.11631    0.65693    1.000
    O15      O        0.37708    0.63369    0.59307    1.000
    O15      O        0.87292    0.13369    0.15693    1.000
    O15      O        0.61631    0.15693    0.87708    1.000
    O15      O        0.11631    0.59307    0.37292    1.000
    O15      O        0.63369    0.65693    0.87292    1.000
    O15      O        0.13369    0.09307    0.37708    1.000
    O15      O        0.37708    0.09307    0.13369    1.000
    O15      O        0.87292    0.65693    0.63369    1.000
    O15      O        0.37292    0.59307    0.11631    1.000
    O15      O        0.87708    0.15693    0.61631    1.000
    O15      O        0.13369    0.87708    0.59307    1.000
    O15      O        0.63369    0.37292    0.15693    1.000
    O15      O        0.11631    0.87292    0.09307    1.000
    O15      O        0.61631    0.37708    0.65693    1.000
    O15      O        0.59307    0.63369    0.37708    1.000
    O15      O        0.15693    0.13369    0.87292    1.000
    O15      O        0.09307    0.61631    0.37292    1.000
    O15      O        0.65693    0.11631    0.87708    1.000
    O15      O        0.84307    0.62708    0.36631    1.000
    O15      O        0.40693    0.12292    0.86631    1.000
    O15      O        0.34307    0.62292    0.38369    1.000
    O15      O        0.90693    0.12708    0.88369    1.000
    O15      O        0.62708    0.38369    0.90693    1.000
    O15      O        0.12292    0.88369    0.34307    1.000
    O15      O        0.62292    0.36631    0.40693    1.000
    O15      O        0.12708    0.86631    0.84307    1.000
    O15      O        0.38369    0.84307    0.12292    1.000
    O15      O        0.88369    0.40693    0.62708    1.000
    O15      O        0.36631    0.34307    0.12708    1.000
    O15      O        0.86631    0.90693    0.62292    1.000
    O15      O        0.62292    0.40693    0.36631    1.000
    O15      O        0.12708    0.84307    0.86631    1.000
    O15      O        0.62708    0.90693    0.38369    1.000
    O15      O        0.12292    0.34307    0.88369    1.000
    O15      O        0.86631    0.62292    0.90693    1.000
    O15      O        0.36631    0.12708    0.34307    1.000
    O15      O        0.88369    0.62708    0.40693    1.000
    O15      O        0.38369    0.12292    0.84307    1.000
    O15      O        0.40693    0.86631    0.12292    1.000
    O15      O        0.84307    0.36631    0.62708    1.000
    O15      O        0.90693    0.88369    0.12708    1.000
    O15      O        0.34307    0.38369    0.62292    1.000
    O15      O        0.15693    0.87292    0.13369    1.000
    O15      O        0.59307    0.37708    0.63369    1.000
    O15      O        0.65693    0.87708    0.11631    1.000
    O15      O        0.09307    0.37292    0.61631    1.000
    O15      O        0.37292    0.11631    0.59307    1.000
    O15      O        0.87708    0.61631    0.15693    1.000
    O15      O        0.37708    0.13369    0.09307    1.000
    O15      O        0.87292    0.63369    0.65693    1.000
    O15      O        0.61631    0.65693    0.37708    1.000
    O15      O        0.11631    0.09307    0.87292    1.000
    O15      O        0.63369    0.15693    0.37292    1.000
    O15      O        0.13369    0.59307    0.87708    1.000
    O15      O        0.37708    0.59307    0.63369    1.000
    O15      O        0.87292    0.15693    0.13369    1.000
    O15      O        0.37292    0.09307    0.61631    1.000
    O15      O        0.87708    0.65693    0.11631    1.000
    O15      O        0.13369    0.37708    0.09307    1.000
    O15      O        0.63369    0.87292    0.65693    1.000
    O15      O        0.11631    0.37292    0.59307    1.000
    O15      O        0.61631    0.87708    0.15693    1.000
    O15      O        0.59307    0.13369    0.87708    1.000
    O15      O        0.15693    0.63369    0.37292    1.000
    O15      O        0.09307    0.11631    0.87292    1.000
    O15      O        0.65693    0.61631    0.37708    1.000
    O15      O        0.84307    0.12708    0.86631    1.000
    O15      O        0.40693    0.62292    0.36631    1.000
    O15      O        0.34307    0.12292    0.88369    1.000
    O15      O        0.90693    0.62708    0.38369    1.000
    O15      O        0.62708    0.88369    0.40693    1.000
    O15      O        0.12292    0.38369    0.84307    1.000
    O15      O        0.62292    0.86631    0.90693    1.000
    O15      O        0.12708    0.36631    0.34307    1.000
    O15      O        0.38369    0.34307    0.62292    1.000
    O15      O        0.88369    0.90693    0.12708    1.000
    O15      O        0.36631    0.84307    0.62708    1.000
    O15      O        0.86631    0.40693    0.12292    1.000
    O16      O        0.05638    0.30911    0.42195    1.000
    O16      O        0.55638    0.44089    0.82805    1.000
    O16      O        0.19362    0.80911    0.32805    1.000
    O16      O        0.92195    0.69362    0.94089    1.000
    O16      O        0.42195    0.05638    0.30911    1.000
    O16      O        0.82805    0.55638    0.44089    1.000
    O16      O        0.32805    0.19362    0.80911    1.000
    O16      O        0.94089    0.92195    0.69362    1.000
    O16      O        0.30911    0.42195    0.05638    1.000
    O16      O        0.44089    0.82805    0.55638    1.000
    O16      O        0.80911    0.32805    0.19362    1.000
    O16      O        0.69089    0.94362    0.57805    1.000
    O16      O        0.05911    0.30638    0.07805    1.000
    O16      O        0.19089    0.80638    0.67195    1.000
    O16      O        0.55911    0.44362    0.17195    1.000
    O16      O        0.44362    0.17195    0.55911    1.000
    O16      O        0.80638    0.67195    0.19089    1.000
    O16      O        0.30638    0.07805    0.05911    1.000
    O16      O        0.94362    0.57805    0.69089    1.000
    O16      O        0.67195    0.19089    0.80638    1.000
    O16      O        0.17195    0.55911    0.44362    1.000
    O16      O        0.57805    0.69089    0.94362    1.000
    O16      O        0.07805    0.05911    0.30638    1.000
    O16      O        0.30638    0.05911    0.07805    1.000
    O16      O        0.94362    0.69089    0.57805    1.000
    O16      O        0.44362    0.55911    0.17195    1.000
    O16      O        0.80638    0.19089    0.67195    1.000
    O16      O        0.07805    0.30638    0.05911    1.000
    O16      O        0.57805    0.94362    0.69089    1.000
    O16      O        0.17195    0.44362    0.55911    1.000
    O16      O        0.67195    0.80638    0.19089    1.000
    O16      O        0.05911    0.07805    0.30638    1.000
    O16      O        0.69089    0.57805    0.94362    1.000
    O16      O        0.55911    0.17195    0.44362    1.000
    O16      O        0.19089    0.67195    0.80638    1.000
    O16      O        0.30911    0.05638    0.42195    1.000
    O16      O        0.94089    0.69362    0.92195    1.000
    O16      O        0.80911    0.19362    0.32805    1.000
    O16      O        0.44089    0.55638    0.82805    1.000
    O16      O        0.55638    0.82805    0.44089    1.000
    O16      O        0.19362    0.32805    0.80911    1.000
    O16      O        0.69362    0.92195    0.94089    1.000
    O16      O        0.05638    0.42195    0.30911    1.000
    O16      O        0.32805    0.80911    0.19362    1.000
    O16      O        0.82805    0.44089    0.55638    1.000
    O16      O        0.42195    0.30911    0.05638    1.000
    O16      O        0.92195    0.94089    0.69362    1.000
    O16      O        0.69362    0.44089    0.42195    1.000
    O16      O        0.05638    0.80911    0.92195    1.000
    O16      O        0.55638    0.94089    0.32805    1.000
    O16      O        0.19362    0.30911    0.82805    1.000
    O16      O        0.92195    0.19362    0.44089    1.000
    O16      O        0.42195    0.55638    0.80911    1.000
    O16      O        0.82805    0.05638    0.94089    1.000
    O16      O        0.32805    0.69362    0.30911    1.000
    O16      O        0.94089    0.42195    0.19362    1.000
    O16      O        0.30911    0.92195    0.55638    1.000
    O16      O        0.44089    0.32805    0.05638    1.000
    O16      O        0.80911    0.82805    0.69362    1.000
    O16      O        0.69089    0.44362    0.07805    1.000
    O16      O        0.05911    0.80638    0.57805    1.000
    O16      O        0.19089    0.30638    0.17195    1.000
    O16      O        0.55911    0.94362    0.67195    1.000
    O16      O        0.44362    0.67195    0.05911    1.000
    O16      O        0.80638    0.17195    0.69089    1.000
    O16      O        0.30638    0.57805    0.55911    1.000
    O16      O        0.94362    0.07805    0.19089    1.000
    O16      O        0.67195    0.69089    0.30638    1.000
    O16      O        0.17195    0.05911    0.94362    1.000
    O16      O        0.57805    0.19089    0.44362    1.000
    O16      O        0.07805    0.55911    0.80638    1.000
    O16      O        0.30638    0.55911    0.57805    1.000
    O16      O        0.94362    0.19089    0.07805    1.000
    O16      O        0.44362    0.05911    0.67195    1.000
    O16      O        0.80638    0.69089    0.17195    1.000
    O16      O        0.07805    0.80638    0.55911    1.000
    O16      O        0.57805    0.44362    0.19089    1.000
    O16      O        0.17195    0.94362    0.05911    1.000
    O16      O        0.67195    0.30638    0.69089    1.000
    O16      O        0.05911    0.57805    0.80638    1.000
    O16      O        0.69089    0.07805    0.44362    1.000
    O16      O        0.55911    0.67195    0.94362    1.000
    O16      O        0.19089    0.17195    0.30638    1.000
    O16      O        0.30911    0.55638    0.92195    1.000
    O16      O        0.94089    0.19362    0.42195    1.000
    O16      O        0.80911    0.69362    0.82805    1.000
    O16      O        0.44089    0.05638    0.32805    1.000
    O16      O        0.55638    0.32805    0.94089    1.000
    O16      O        0.19362    0.82805    0.30911    1.000
    O16      O        0.69362    0.42195    0.44089    1.000
    O16      O        0.05638    0.92195    0.80911    1.000
    O16      O        0.32805    0.30911    0.69362    1.000
    O16      O        0.82805    0.94089    0.05638    1.000
    O16      O        0.42195    0.80911    0.55638    1.000
    O16      O        0.92195    0.44089    0.19362    1.000
    O16      O        0.19362    0.94089    0.42195    1.000
    O16      O        0.55638    0.30911    0.92195    1.000
    O16      O        0.05638    0.44089    0.32805    1.000
    O16      O        0.69362    0.80911    0.82805    1.000
    O16      O        0.42195    0.69362    0.44089    1.000
    O16      O        0.92195    0.05638    0.80911    1.000
    O16      O        0.32805    0.55638    0.94089    1.000
    O16      O        0.82805    0.19362    0.30911    1.000
    O16      O        0.44089    0.92195    0.19362    1.000
    O16      O        0.80911    0.42195    0.55638    1.000
    O16      O        0.94089    0.82805    0.05638    1.000
    O16      O        0.30911    0.32805    0.69362    1.000
    O16      O        0.19089    0.94362    0.07805    1.000
    O16      O        0.55911    0.30638    0.57805    1.000
    O16      O        0.69089    0.80638    0.17195    1.000
    O16      O        0.05911    0.44362    0.67195    1.000
    O16      O        0.94362    0.17195    0.05911    1.000
    O16      O        0.30638    0.67195    0.69089    1.000
    O16      O        0.80638    0.07805    0.55911    1.000
    O16      O        0.44362    0.57805    0.19089    1.000
    O16      O        0.17195    0.19089    0.30638    1.000
    O16      O        0.67195    0.55911    0.94362    1.000
    O16      O        0.07805    0.69089    0.44362    1.000
    O16      O        0.57805    0.05911    0.80638    1.000
    O16      O        0.80638    0.05911    0.57805    1.000
    O16      O        0.44362    0.69089    0.07805    1.000
    O16      O        0.94362    0.55911    0.67195    1.000
    O16      O        0.30638    0.19089    0.17195    1.000
    O16      O        0.57805    0.30638    0.55911    1.000
    O16      O        0.07805    0.94362    0.19089    1.000
    O16      O        0.67195    0.44362    0.05911    1.000
    O16      O        0.17195    0.80638    0.69089    1.000
    O16      O        0.55911    0.07805    0.80638    1.000
    O16      O        0.19089    0.57805    0.44362    1.000
    O16      O        0.05911    0.17195    0.94362    1.000
    O16      O        0.69089    0.67195    0.30638    1.000
    O16      O        0.80911    0.05638    0.92195    1.000
    O16      O        0.44089    0.69362    0.42195    1.000
    O16      O        0.30911    0.19362    0.82805    1.000
    O16      O        0.94089    0.55638    0.32805    1.000
    O16      O        0.05638    0.82805    0.94089    1.000
    O16      O        0.69362    0.32805    0.30911    1.000
    O16      O        0.19362    0.92195    0.44089    1.000
    O16      O        0.55638    0.42195    0.80911    1.000
    O16      O        0.82805    0.80911    0.69362    1.000
    O16      O        0.32805    0.44089    0.05638    1.000
    O16      O        0.92195    0.30911    0.55638    1.000
    O16      O        0.42195    0.94089    0.19362    1.000
    O16      O        0.19362    0.44089    0.92195    1.000
    O16      O        0.55638    0.80911    0.42195    1.000
    O16      O        0.05638    0.94089    0.82805    1.000
    O16      O        0.69362    0.30911    0.32805    1.000
    O16      O        0.42195    0.19362    0.94089    1.000
    O16      O        0.92195    0.55638    0.30911    1.000
    O16      O        0.32805    0.05638    0.44089    1.000
    O16      O        0.82805    0.69362    0.80911    1.000
    O16      O        0.44089    0.42195    0.69362    1.000
    O16      O        0.80911    0.92195    0.05638    1.000
    O16      O        0.94089    0.32805    0.55638    1.000
    O16      O        0.30911    0.82805    0.19362    1.000
    O16      O        0.19089    0.44362    0.57805    1.000
    O16      O        0.55911    0.80638    0.07805    1.000
    O16      O        0.69089    0.30638    0.67195    1.000
    O16      O        0.05911    0.94362    0.17195    1.000
    O16      O        0.94362    0.67195    0.55911    1.000
    O16      O        0.30638    0.17195    0.19089    1.000
    O16      O        0.80638    0.57805    0.05911    1.000
    O16      O        0.44362    0.07805    0.69089    1.000
    O16      O        0.17195    0.69089    0.80638    1.000
    O16      O        0.67195    0.05911    0.44362    1.000
    O16      O        0.07805    0.19089    0.94362    1.000
    O16      O        0.57805    0.55911    0.30638    1.000
    O16      O        0.80638    0.55911    0.07805    1.000
    O16      O        0.44362    0.19089    0.57805    1.000
    O16      O        0.94362    0.05911    0.17195    1.000
    O16      O        0.30638    0.69089    0.67195    1.000
    O16      O        0.57805    0.80638    0.05911    1.000
    O16      O        0.07805    0.44362    0.69089    1.000
    O16      O        0.67195    0.94362    0.55911    1.000
    O16      O        0.17195    0.30638    0.19089    1.000
    O16      O        0.55911    0.57805    0.30638    1.000
    O16      O        0.19089    0.07805    0.94362    1.000
    O16      O        0.05911    0.67195    0.44362    1.000
    O16      O        0.69089    0.17195    0.80638    1.000
    O16      O        0.80911    0.55638    0.42195    1.000
    O16      O        0.44089    0.19362    0.92195    1.000
    O16      O        0.30911    0.69362    0.32805    1.000
    O16      O        0.94089    0.05638    0.82805    1.000
    O16      O        0.05638    0.32805    0.44089    1.000
    O16      O        0.69362    0.82805    0.80911    1.000
    O16      O        0.19362    0.42195    0.94089    1.000
    O16      O        0.55638    0.92195    0.30911    1.000
    O16      O        0.82805    0.30911    0.19362    1.000
    O16      O        0.32805    0.94089    0.55638    1.000
    O16      O        0.92195    0.80911    0.05638    1.000
    O16      O        0.42195    0.44089    0.69362    1.000
    O17      O        0.10161    0.35378    0.37944    1.000
    O17      O        0.60161    0.39622    0.87056    1.000
    O17      O        0.14839    0.85378    0.37056    1.000
    O17      O        0.87944    0.64839    0.89622    1.000
    O17      O        0.37944    0.10161    0.35378    1.000
    O17      O        0.87056    0.60161    0.39622    1.000
    O17      O        0.37056    0.14839    0.85378    1.000
    O17      O        0.89622    0.87944    0.64839    1.000
    O17      O        0.35378    0.37944    0.10161    1.000
    O17      O        0.39622    0.87056    0.60161    1.000
    O17      O        0.85378    0.37056    0.14839    1.000
    O17      O        0.64622    0.89839    0.62056    1.000
    O17      O        0.10378    0.35161    0.12056    1.000
    O17      O        0.14622    0.85161    0.62944    1.000
    O17      O        0.60378    0.39839    0.12944    1.000
    O17      O        0.39839    0.12944    0.60378    1.000
    O17      O        0.85161    0.62944    0.14622    1.000
    O17      O        0.35161    0.12056    0.10378    1.000
    O17      O        0.89839    0.62056    0.64622    1.000
    O17      O        0.62944    0.14622    0.85161    1.000
    O17      O        0.12944    0.60378    0.39839    1.000
    O17      O        0.62056    0.64622    0.89839    1.000
    O17      O        0.12056    0.10378    0.35161    1.000
    O17      O        0.35161    0.10378    0.12056    1.000
    O17      O        0.89839    0.64622    0.62056    1.000
    O17      O        0.39839    0.60378    0.12944    1.000
    O17      O        0.85161    0.14622    0.62944    1.000
    O17      O        0.12056    0.35161    0.10378    1.000
    O17      O        0.62056    0.89839    0.64622    1.000
    O17      O        0.12944    0.39839    0.60378    1.000
    O17      O        0.62944    0.85161    0.14622    1.000
    O17      O        0.10378    0.12056    0.35161    1.000
    O17      O        0.64622    0.62056    0.89839    1.000
    O17      O        0.60378    0.12944    0.39839    1.000
    O17      O        0.14622    0.62944    0.85161    1.000
    O17      O        0.35378    0.10161    0.37944    1.000
    O17      O        0.89622    0.64839    0.87944    1.000
    O17      O        0.85378    0.14839    0.37056    1.000
    O17      O        0.39622    0.60161    0.87056    1.000
    O17      O        0.60161    0.87056    0.39622    1.000
    O17      O        0.14839    0.37056    0.85378    1.000
    O17      O        0.64839    0.87944    0.89622    1.000
    O17      O        0.10161    0.37944    0.35378    1.000
    O17      O        0.37056    0.85378    0.14839    1.000
    O17      O        0.87056    0.39622    0.60161    1.000
    O17      O        0.37944    0.35378    0.10161    1.000
    O17      O        0.87944    0.89622    0.64839    1.000
    O17      O        0.64839    0.39622    0.37944    1.000
    O17      O        0.10161    0.85378    0.87944    1.000
    O17      O        0.60161    0.89622    0.37056    1.000
    O17      O        0.14839    0.35378    0.87056    1.000
    O17      O        0.87944    0.14839    0.39622    1.000
    O17      O        0.37944    0.60161    0.85378    1.000
    O17      O        0.87056    0.10161    0.89622    1.000
    O17      O        0.37056    0.64839    0.35378    1.000
    O17      O        0.89622    0.37944    0.14839    1.000
    O17      O        0.35378    0.87944    0.60161    1.000
    O17      O        0.39622    0.37056    0.10161    1.000
    O17      O        0.85378    0.87056    0.64839    1.000
    O17      O        0.64622    0.39839    0.12056    1.000
    O17      O        0.10378    0.85161    0.62056    1.000
    O17      O        0.14622    0.35161    0.12944    1.000
    O17      O        0.60378    0.89839    0.62944    1.000
    O17      O        0.39839    0.62944    0.10378    1.000
    O17      O        0.85161    0.12944    0.64622    1.000
    O17      O        0.35161    0.62056    0.60378    1.000
    O17      O        0.89839    0.12056    0.14622    1.000
    O17      O        0.62944    0.64622    0.35161    1.000
    O17      O        0.12944    0.10378    0.89839    1.000
    O17      O        0.62056    0.14622    0.39839    1.000
    O17      O        0.12056    0.60378    0.85161    1.000
    O17      O        0.35161    0.60378    0.62056    1.000
    O17      O        0.89839    0.14622    0.12056    1.000
    O17      O        0.39839    0.10378    0.62944    1.000
    O17      O        0.85161    0.64622    0.12944    1.000
    O17      O        0.12056    0.85161    0.60378    1.000
    O17      O        0.62056    0.39839    0.14622    1.000
    O17      O        0.12944    0.89839    0.10378    1.000
    O17      O        0.62944    0.35161    0.64622    1.000
    O17      O        0.10378    0.62056    0.85161    1.000
    O17      O        0.64622    0.12056    0.39839    1.000
    O17      O        0.60378    0.62944    0.89839    1.000
    O17      O        0.14622    0.12944    0.35161    1.000
    O17      O        0.35378    0.60161    0.87944    1.000
    O17      O        0.89622    0.14839    0.37944    1.000
    O17      O        0.85378    0.64839    0.87056    1.000
    O17      O        0.39622    0.10161    0.37056    1.000
    O17      O        0.60161    0.37056    0.89622    1.000
    O17      O        0.14839    0.87056    0.35378    1.000
    O17      O        0.64839    0.37944    0.39622    1.000
    O17      O        0.10161    0.87944    0.85378    1.000
    O17      O        0.37056    0.35378    0.64839    1.000
    O17      O        0.87056    0.89622    0.10161    1.000
    O17      O        0.37944    0.85378    0.60161    1.000
    O17      O        0.87944    0.39622    0.14839    1.000
    O17      O        0.14839    0.89622    0.37944    1.000
    O17      O        0.60161    0.35378    0.87944    1.000
    O17      O        0.10161    0.39622    0.37056    1.000
    O17      O        0.64839    0.85378    0.87056    1.000
    O17      O        0.37944    0.64839    0.39622    1.000
    O17      O        0.87944    0.10161    0.85378    1.000
    O17      O        0.37056    0.60161    0.89622    1.000
    O17      O        0.87056    0.14839    0.35378    1.000
    O17      O        0.39622    0.87944    0.14839    1.000
    O17      O        0.85378    0.37944    0.60161    1.000
    O17      O        0.89622    0.87056    0.10161    1.000
    O17      O        0.35378    0.37056    0.64839    1.000
    O17      O        0.14622    0.89839    0.12056    1.000
    O17      O        0.60378    0.35161    0.62056    1.000
    O17      O        0.64622    0.85161    0.12944    1.000
    O17      O        0.10378    0.39839    0.62944    1.000
    O17      O        0.89839    0.12944    0.10378    1.000
    O17      O        0.35161    0.62944    0.64622    1.000
    O17      O        0.85161    0.12056    0.60378    1.000
    O17      O        0.39839    0.62056    0.14622    1.000
    O17      O        0.12944    0.14622    0.35161    1.000
    O17      O        0.62944    0.60378    0.89839    1.000
    O17      O        0.12056    0.64622    0.39839    1.000
    O17      O        0.62056    0.10378    0.85161    1.000
    O17      O        0.85161    0.10378    0.62056    1.000
    O17      O        0.39839    0.64622    0.12056    1.000
    O17      O        0.89839    0.60378    0.62944    1.000
    O17      O        0.35161    0.14622    0.12944    1.000
    O17      O        0.62056    0.35161    0.60378    1.000
    O17      O        0.12056    0.89839    0.14622    1.000
    O17      O        0.62944    0.39839    0.10378    1.000
    O17      O        0.12944    0.85161    0.64622    1.000
    O17      O        0.60378    0.12056    0.85161    1.000
    O17      O        0.14622    0.62056    0.39839    1.000
    O17      O        0.10378    0.12944    0.89839    1.000
    O17      O        0.64622    0.62944    0.35161    1.000
    O17      O        0.85378    0.10161    0.87944    1.000
    O17      O        0.39622    0.64839    0.37944    1.000
    O17      O        0.35378    0.14839    0.87056    1.000
    O17      O        0.89622    0.60161    0.37056    1.000
    O17      O        0.10161    0.87056    0.89622    1.000
    O17      O        0.64839    0.37056    0.35378    1.000
    O17      O        0.14839    0.87944    0.39622    1.000
    O17      O        0.60161    0.37944    0.85378    1.000
    O17      O        0.87056    0.85378    0.64839    1.000
    O17      O        0.37056    0.39622    0.10161    1.000
    O17      O        0.87944    0.35378    0.60161    1.000
    O17      O        0.37944    0.89622    0.14839    1.000
    O17      O        0.14839    0.39622    0.87944    1.000
    O17      O        0.60161    0.85378    0.37944    1.000
    O17      O        0.10161    0.89622    0.87056    1.000
    O17      O        0.64839    0.35378    0.37056    1.000
    O17      O        0.37944    0.14839    0.89622    1.000
    O17      O        0.87944    0.60161    0.35378    1.000
    O17      O        0.37056    0.10161    0.39622    1.000
    O17      O        0.87056    0.64839    0.85378    1.000
    O17      O        0.39622    0.37944    0.64839    1.000
    O17      O        0.85378    0.87944    0.10161    1.000
    O17      O        0.89622    0.37056    0.60161    1.000
    O17      O        0.35378    0.87056    0.14839    1.000
    O17      O        0.14622    0.39839    0.62056    1.000
    O17      O        0.60378    0.85161    0.12056    1.000
    O17      O        0.64622    0.35161    0.62944    1.000
    O17      O        0.10378    0.89839    0.12944    1.000
    O17      O        0.89839    0.62944    0.60378    1.000
    O17      O        0.35161    0.12944    0.14622    1.000
    O17      O        0.85161    0.62056    0.10378    1.000
    O17      O        0.39839    0.12056    0.64622    1.000
    O17      O        0.12944    0.64622    0.85161    1.000
    O17      O        0.62944    0.10378    0.39839    1.000
    O17      O        0.12056    0.14622    0.89839    1.000
    O17      O        0.62056    0.60378    0.35161    1.000
    O17      O        0.85161    0.60378    0.12056    1.000
    O17      O        0.39839    0.14622    0.62056    1.000
    O17      O        0.89839    0.10378    0.12944    1.000
    O17      O        0.35161    0.64622    0.62944    1.000
    O17      O        0.62056    0.85161    0.10378    1.000
    O17      O        0.12056    0.39839    0.64622    1.000
    O17      O        0.62944    0.89839    0.60378    1.000
    O17      O        0.12944    0.35161    0.14622    1.000
    O17      O        0.60378    0.62056    0.35161    1.000
    O17      O        0.14622    0.12056    0.89839    1.000
    O17      O        0.10378    0.62944    0.39839    1.000
    O17      O        0.64622    0.12944    0.85161    1.000
    O17      O        0.85378    0.60161    0.37944    1.000
    O17      O        0.39622    0.14839    0.87944    1.000
    O17      O        0.35378    0.64839    0.37056    1.000
    O17      O        0.89622    0.10161    0.87056    1.000
    O17      O        0.10161    0.37056    0.39622    1.000
    O17      O        0.64839    0.87056    0.85378    1.000
    O17      O        0.14839    0.37944    0.89622    1.000
    O17      O        0.60161    0.87944    0.35378    1.000
    O17      O        0.87056    0.35378    0.14839    1.000
    O17      O        0.37056    0.89622    0.60161    1.000
    O17      O        0.87944    0.85378    0.10161    1.000
    O17      O        0.37944    0.39622    0.64839    1.000
    O18      O        0.56477    0.27376    0.95379    1.000
    O18      O        0.06477    0.47624    0.29621    1.000
    O18      O        0.68523    0.77376    0.79621    1.000
    O18      O        0.45379    0.18523    0.97624    1.000
    O18      O        0.95379    0.56477    0.27376    1.000
    O18      O        0.29621    0.06477    0.47624    1.000
    O18      O        0.79621    0.68523    0.77376    1.000
    O18      O        0.97624    0.45379    0.18523    1.000
    O18      O        0.27376    0.95379    0.56477    1.000
    O18      O        0.47624    0.29621    0.06477    1.000
    O18      O        0.77376    0.79621    0.68523    1.000
    O18      O        0.72624    0.43523    0.04621    1.000
    O18      O        0.02376    0.81477    0.54621    1.000
    O18      O        0.22624    0.31477    0.20379    1.000
    O18      O        0.52376    0.93523    0.70379    1.000
    O18      O        0.93523    0.70379    0.52376    1.000
    O18      O        0.31477    0.20379    0.22624    1.000
    O18      O        0.81477    0.54621    0.02376    1.000
    O18      O        0.43523    0.04621    0.72624    1.000
    O18      O        0.20379    0.22624    0.31477    1.000
    O18      O        0.70379    0.52376    0.93523    1.000
    O18      O        0.04621    0.72624    0.43523    1.000
    O18      O        0.54621    0.02376    0.81477    1.000
    O18      O        0.81477    0.02376    0.54621    1.000
    O18      O        0.43523    0.72624    0.04621    1.000
    O18      O        0.93523    0.52376    0.70379    1.000
    O18      O        0.31477    0.22624    0.20379    1.000
    O18      O        0.54621    0.81477    0.02376    1.000
    O18      O        0.04621    0.43523    0.72624    1.000
    O18      O        0.70379    0.93523    0.52376    1.000
    O18      O        0.20379    0.31477    0.22624    1.000
    O18      O        0.02376    0.54621    0.81477    1.000
    O18      O        0.72624    0.04621    0.43523    1.000
    O18      O        0.52376    0.70379    0.93523    1.000
    O18      O        0.22624    0.20379    0.31477    1.000
    O18      O        0.27376    0.56477    0.95379    1.000
    O18      O        0.97624    0.18523    0.45379    1.000
    O18      O        0.77376    0.68523    0.79621    1.000
    O18      O        0.47624    0.06477    0.29621    1.000
    O18      O        0.06477    0.29621    0.47624    1.000
    O18      O        0.68523    0.79621    0.77376    1.000
    O18      O        0.18523    0.45379    0.97624    1.000
    O18      O        0.56477    0.95379    0.27376    1.000
    O18      O        0.79621    0.77376    0.68523    1.000
    O18      O        0.29621    0.47624    0.06477    1.000
    O18      O        0.95379    0.27376    0.56477    1.000
    O18      O        0.45379    0.97624    0.18523    1.000
    O18      O        0.18523    0.47624    0.95379    1.000
    O18      O        0.56477    0.77376    0.45379    1.000
    O18      O        0.06477    0.97624    0.79621    1.000
    O18      O        0.68523    0.27376    0.29621    1.000
    O18      O        0.45379    0.68523    0.47624    1.000
    O18      O        0.95379    0.06477    0.77376    1.000
    O18      O        0.29621    0.56477    0.97624    1.000
    O18      O        0.79621    0.18523    0.27376    1.000
    O18      O        0.97624    0.95379    0.68523    1.000
    O18      O        0.27376    0.45379    0.06477    1.000
    O18      O        0.47624    0.79621    0.56477    1.000
    O18      O        0.77376    0.29621    0.18523    1.000
    O18      O        0.72624    0.93523    0.54621    1.000
    O18      O        0.02376    0.31477    0.04621    1.000
    O18      O        0.22624    0.81477    0.70379    1.000
    O18      O        0.52376    0.43523    0.20379    1.000
    O18      O        0.93523    0.20379    0.02376    1.000
    O18      O        0.31477    0.70379    0.72624    1.000
    O18      O        0.81477    0.04621    0.52376    1.000
    O18      O        0.43523    0.54621    0.22624    1.000
    O18      O        0.20379    0.72624    0.81477    1.000
    O18      O        0.70379    0.02376    0.43523    1.000
    O18      O        0.04621    0.22624    0.93523    1.000
    O18      O        0.54621    0.52376    0.31477    1.000
    O18      O        0.81477    0.52376    0.04621    1.000
    O18      O        0.43523    0.22624    0.54621    1.000
    O18      O        0.93523    0.02376    0.20379    1.000
    O18      O        0.31477    0.72624    0.70379    1.000
    O18      O        0.54621    0.31477    0.52376    1.000
    O18      O        0.04621    0.93523    0.22624    1.000
    O18      O        0.70379    0.43523    0.02376    1.000
    O18      O        0.20379    0.81477    0.72624    1.000
    O18      O        0.02376    0.04621    0.31477    1.000
    O18      O        0.72624    0.54621    0.93523    1.000
    O18      O        0.52376    0.20379    0.43523    1.000
    O18      O        0.22624    0.70379    0.81477    1.000
    O18      O        0.27376    0.06477    0.45379    1.000
    O18      O        0.97624    0.68523    0.95379    1.000
    O18      O        0.77376    0.18523    0.29621    1.000
    O18      O        0.47624    0.56477    0.79621    1.000
    O18      O        0.06477    0.79621    0.97624    1.000
    O18      O        0.68523    0.29621    0.27376    1.000
    O18      O        0.18523    0.95379    0.47624    1.000
    O18      O        0.56477    0.45379    0.77376    1.000
    O18      O        0.79621    0.27376    0.18523    1.000
    O18      O        0.29621    0.97624    0.56477    1.000
    O18      O        0.95379    0.77376    0.06477    1.000
    O18      O        0.45379    0.47624    0.68523    1.000
    O18      O        0.68523    0.97624    0.95379    1.000
    O18      O        0.06477    0.27376    0.45379    1.000
    O18      O        0.56477    0.47624    0.79621    1.000
    O18      O        0.18523    0.77376    0.29621    1.000
    O18      O        0.95379    0.18523    0.47624    1.000
    O18      O        0.45379    0.56477    0.77376    1.000
    O18      O        0.79621    0.06477    0.97624    1.000
    O18      O        0.29621    0.68523    0.27376    1.000
    O18      O        0.47624    0.45379    0.68523    1.000
    O18      O        0.77376    0.95379    0.06477    1.000
    O18      O        0.97624    0.29621    0.56477    1.000
    O18      O        0.27376    0.79621    0.18523    1.000
    O18      O        0.22624    0.43523    0.54621    1.000
    O18      O        0.52376    0.81477    0.04621    1.000
    O18      O        0.72624    0.31477    0.70379    1.000
    O18      O        0.02376    0.93523    0.20379    1.000
    O18      O        0.43523    0.70379    0.02376    1.000
    O18      O        0.81477    0.20379    0.72624    1.000
    O18      O        0.31477    0.54621    0.52376    1.000
    O18      O        0.93523    0.04621    0.22624    1.000
    O18      O        0.70379    0.22624    0.81477    1.000
    O18      O        0.20379    0.52376    0.43523    1.000
    O18      O        0.54621    0.72624    0.93523    1.000
    O18      O        0.04621    0.02376    0.31477    1.000
    O18      O        0.31477    0.02376    0.04621    1.000
    O18      O        0.93523    0.72624    0.54621    1.000
    O18      O        0.43523    0.52376    0.20379    1.000
    O18      O        0.81477    0.22624    0.70379    1.000
    O18      O        0.04621    0.81477    0.52376    1.000
    O18      O        0.54621    0.43523    0.22624    1.000
    O18      O        0.20379    0.93523    0.02376    1.000
    O18      O        0.70379    0.31477    0.72624    1.000
    O18      O        0.52376    0.54621    0.31477    1.000
    O18      O        0.22624    0.04621    0.93523    1.000
    O18      O        0.02376    0.70379    0.43523    1.000
    O18      O        0.72624    0.20379    0.81477    1.000
    O18      O        0.77376    0.56477    0.45379    1.000
    O18      O        0.47624    0.18523    0.95379    1.000
    O18      O        0.27376    0.68523    0.29621    1.000
    O18      O        0.97624    0.06477    0.79621    1.000
    O18      O        0.56477    0.29621    0.97624    1.000
    O18      O        0.18523    0.79621    0.27376    1.000
    O18      O        0.68523    0.45379    0.47624    1.000
    O18      O        0.06477    0.95379    0.77376    1.000
    O18      O        0.29621    0.77376    0.18523    1.000
    O18      O        0.79621    0.47624    0.56477    1.000
    O18      O        0.45379    0.27376    0.06477    1.000
    O18      O        0.95379    0.97624    0.68523    1.000
    O18      O        0.68523    0.47624    0.45379    1.000
    O18      O        0.06477    0.77376    0.95379    1.000
    O18      O        0.56477    0.97624    0.29621    1.000
    O18      O        0.18523    0.27376    0.79621    1.000
    O18      O        0.95379    0.68523    0.97624    1.000
    O18      O        0.45379    0.06477    0.27376    1.000
    O18      O        0.79621    0.56477    0.47624    1.000
    O18      O        0.29621    0.18523    0.77376    1.000
    O18      O        0.47624    0.95379    0.18523    1.000
    O18      O        0.77376    0.45379    0.56477    1.000
    O18      O        0.97624    0.79621    0.06477    1.000
    O18      O        0.27376    0.29621    0.68523    1.000
    O18      O        0.22624    0.93523    0.04621    1.000
    O18      O        0.52376    0.31477    0.54621    1.000
    O18      O        0.72624    0.81477    0.20379    1.000
    O18      O        0.02376    0.43523    0.70379    1.000
    O18      O        0.43523    0.20379    0.52376    1.000
    O18      O        0.81477    0.70379    0.22624    1.000
    O18      O        0.31477    0.04621    0.02376    1.000
    O18      O        0.93523    0.54621    0.72624    1.000
    O18      O        0.70379    0.72624    0.31477    1.000
    O18      O        0.20379    0.02376    0.93523    1.000
    O18      O        0.54621    0.22624    0.43523    1.000
    O18      O        0.04621    0.52376    0.81477    1.000
    O18      O        0.31477    0.52376    0.54621    1.000
    O18      O        0.93523    0.22624    0.04621    1.000
    O18      O        0.43523    0.02376    0.70379    1.000
    O18      O        0.81477    0.72624    0.20379    1.000
    O18      O        0.04621    0.31477    0.02376    1.000
    O18      O        0.54621    0.93523    0.72624    1.000
    O18      O        0.20379    0.43523    0.52376    1.000
    O18      O        0.70379    0.81477    0.22624    1.000
    O18      O        0.52376    0.04621    0.81477    1.000
    O18      O        0.22624    0.54621    0.43523    1.000
    O18      O        0.02376    0.20379    0.93523    1.000
    O18      O        0.72624    0.70379    0.31477    1.000
    O18      O        0.77376    0.06477    0.95379    1.000
    O18      O        0.47624    0.68523    0.45379    1.000
    O18      O        0.27376    0.18523    0.79621    1.000
    O18      O        0.97624    0.56477    0.29621    1.000
    O18      O        0.56477    0.79621    0.47624    1.000
    O18      O        0.18523    0.29621    0.77376    1.000
    O18      O        0.68523    0.95379    0.97624    1.000
    O18      O        0.06477    0.45379    0.27376    1.000
    O18      O        0.29621    0.27376    0.68523    1.000
    O18      O        0.79621    0.97624    0.06477    1.000
    O18      O        0.45379    0.77376    0.56477    1.000
    O18      O        0.95379    0.47624    0.18523    1.000
    O19      O        0.56073    0.28088    0.93055    1.000
    O19      O        0.06073    0.46912    0.31945    1.000
    O19      O        0.68927    0.78088    0.81945    1.000
    O19      O        0.43055    0.18927    0.96912    1.000
    O19      O        0.93055    0.56073    0.28088    1.000
    O19      O        0.31945    0.06073    0.46912    1.000
    O19      O        0.81945    0.68927    0.78088    1.000
    O19      O        0.96912    0.43055    0.18927    1.000
    O19      O        0.28088    0.93055    0.56073    1.000
    O19      O        0.46912    0.31945    0.06073    1.000
    O19      O        0.78088    0.81945    0.68927    1.000
    O19      O        0.71912    0.43927    0.06945    1.000
    O19      O        0.03088    0.81073    0.56945    1.000
    O19      O        0.21912    0.31073    0.18055    1.000
    O19      O        0.53088    0.93927    0.68055    1.000
    O19      O        0.93927    0.68055    0.53088    1.000
    O19      O        0.31073    0.18055    0.21912    1.000
    O19      O        0.81073    0.56945    0.03088    1.000
    O19      O        0.43927    0.06945    0.71912    1.000
    O19      O        0.18055    0.21912    0.31073    1.000
    O19      O        0.68055    0.53088    0.93927    1.000
    O19      O        0.06945    0.71912    0.43927    1.000
    O19      O        0.56945    0.03088    0.81073    1.000
    O19      O        0.81073    0.03088    0.56945    1.000
    O19      O        0.43927    0.71912    0.06945    1.000
    O19      O        0.93927    0.53088    0.68055    1.000
    O19      O        0.31073    0.21912    0.18055    1.000
    O19      O        0.56945    0.81073    0.03088    1.000
    O19      O        0.06945    0.43927    0.71912    1.000
    O19      O        0.68055    0.93927    0.53088    1.000
    O19      O        0.18055    0.31073    0.21912    1.000
    O19      O        0.03088    0.56945    0.81073    1.000
    O19      O        0.71912    0.06945    0.43927    1.000
    O19      O        0.53088    0.68055    0.93927    1.000
    O19      O        0.21912    0.18055    0.31073    1.000
    O19      O        0.28088    0.56073    0.93055    1.000
    O19      O        0.96912    0.18927    0.43055    1.000
    O19      O        0.78088    0.68927    0.81945    1.000
    O19      O        0.46912    0.06073    0.31945    1.000
    O19      O        0.06073    0.31945    0.46912    1.000
    O19      O        0.68927    0.81945    0.78088    1.000
    O19      O        0.18927    0.43055    0.96912    1.000
    O19      O        0.56073    0.93055    0.28088    1.000
    O19      O        0.81945    0.78088    0.68927    1.000
    O19      O        0.31945    0.46912    0.06073    1.000
    O19      O        0.93055    0.28088    0.56073    1.000
    O19      O        0.43055    0.96912    0.18927    1.000
    O19      O        0.18927    0.46912    0.93055    1.000
    O19      O        0.56073    0.78088    0.43055    1.000
    O19      O        0.06073    0.96912    0.81945    1.000
    O19      O        0.68927    0.28088    0.31945    1.000
    O19      O        0.43055    0.68927    0.46912    1.000
    O19      O        0.93055    0.06073    0.78088    1.000
    O19      O        0.31945    0.56073    0.96912    1.000
    O19      O        0.81945    0.18927    0.28088    1.000
    O19      O        0.96912    0.93055    0.68927    1.000
    O19      O        0.28088    0.43055    0.06073    1.000
    O19      O        0.46912    0.81945    0.56073    1.000
    O19      O        0.78088    0.31945    0.18927    1.000
    O19      O        0.71912    0.93927    0.56945    1.000
    O19      O        0.03088    0.31073    0.06945    1.000
    O19      O        0.21912    0.81073    0.68055    1.000
    O19      O        0.53088    0.43927    0.18055    1.000
    O19      O        0.93927    0.18055    0.03088    1.000
    O19      O        0.31073    0.68055    0.71912    1.000
    O19      O        0.81073    0.06945    0.53088    1.000
    O19      O        0.43927    0.56945    0.21912    1.000
    O19      O        0.18055    0.71912    0.81073    1.000
    O19      O        0.68055    0.03088    0.43927    1.000
    O19      O        0.06945    0.21912    0.93927    1.000
    O19      O        0.56945    0.53088    0.31073    1.000
    O19      O        0.81073    0.53088    0.06945    1.000
    O19      O        0.43927    0.21912    0.56945    1.000
    O19      O        0.93927    0.03088    0.18055    1.000
    O19      O        0.31073    0.71912    0.68055    1.000
    O19      O        0.56945    0.31073    0.53088    1.000
    O19      O        0.06945    0.93927    0.21912    1.000
    O19      O        0.68055    0.43927    0.03088    1.000
    O19      O        0.18055    0.81073    0.71912    1.000
    O19      O        0.03088    0.06945    0.31073    1.000
    O19      O        0.71912    0.56945    0.93927    1.000
    O19      O        0.53088    0.18055    0.43927    1.000
    O19      O        0.21912    0.68055    0.81073    1.000
    O19      O        0.28088    0.06073    0.43055    1.000
    O19      O        0.96912    0.68927    0.93055    1.000
    O19      O        0.78088    0.18927    0.31945    1.000
    O19      O        0.46912    0.56073    0.81945    1.000
    O19      O        0.06073    0.81945    0.96912    1.000
    O19      O        0.68927    0.31945    0.28088    1.000
    O19      O        0.18927    0.93055    0.46912    1.000
    O19      O        0.56073    0.43055    0.78088    1.000
    O19      O        0.81945    0.28088    0.18927    1.000
    O19      O        0.31945    0.96912    0.56073    1.000
    O19      O        0.93055    0.78088    0.06073    1.000
    O19      O        0.43055    0.46912    0.68927    1.000
    O19      O        0.68927    0.96912    0.93055    1.000
    O19      O        0.06073    0.28088    0.43055    1.000
    O19      O        0.56073    0.46912    0.81945    1.000
    O19      O        0.18927    0.78088    0.31945    1.000
    O19      O        0.93055    0.18927    0.46912    1.000
    O19      O        0.43055    0.56073    0.78088    1.000
    O19      O        0.81945    0.06073    0.96912    1.000
    O19      O        0.31945    0.68927    0.28088    1.000
    O19      O        0.46912    0.43055    0.68927    1.000
    O19      O        0.78088    0.93055    0.06073    1.000
    O19      O        0.96912    0.31945    0.56073    1.000
    O19      O        0.28088    0.81945    0.18927    1.000
    O19      O        0.21912    0.43927    0.56945    1.000
    O19      O        0.53088    0.81073    0.06945    1.000
    O19      O        0.71912    0.31073    0.68055    1.000
    O19      O        0.03088    0.93927    0.18055    1.000
    O19      O        0.43927    0.68055    0.03088    1.000
    O19      O        0.81073    0.18055    0.71912    1.000
    O19      O        0.31073    0.56945    0.53088    1.000
    O19      O        0.93927    0.06945    0.21912    1.000
    O19      O        0.68055    0.21912    0.81073    1.000
    O19      O        0.18055    0.53088    0.43927    1.000
    O19      O        0.56945    0.71912    0.93927    1.000
    O19      O        0.06945    0.03088    0.31073    1.000
    O19      O        0.31073    0.03088    0.06945    1.000
    O19      O        0.93927    0.71912    0.56945    1.000
    O19      O        0.43927    0.53088    0.18055    1.000
    O19      O        0.81073    0.21912    0.68055    1.000
    O19      O        0.06945    0.81073    0.53088    1.000
    O19      O        0.56945    0.43927    0.21912    1.000
    O19      O        0.18055    0.93927    0.03088    1.000
    O19      O        0.68055    0.31073    0.71912    1.000
    O19      O        0.53088    0.56945    0.31073    1.000
    O19      O        0.21912    0.06945    0.93927    1.000
    O19      O        0.03088    0.68055    0.43927    1.000
    O19      O        0.71912    0.18055    0.81073    1.000
    O19      O        0.78088    0.56073    0.43055    1.000
    O19      O        0.46912    0.18927    0.93055    1.000
    O19      O        0.28088    0.68927    0.31945    1.000
    O19      O        0.96912    0.06073    0.81945    1.000
    O19      O        0.56073    0.31945    0.96912    1.000
    O19      O        0.18927    0.81945    0.28088    1.000
    O19      O        0.68927    0.43055    0.46912    1.000
    O19      O        0.06073    0.93055    0.78088    1.000
    O19      O        0.31945    0.78088    0.18927    1.000
    O19      O        0.81945    0.46912    0.56073    1.000
    O19      O        0.43055    0.28088    0.06073    1.000
    O19      O        0.93055    0.96912    0.68927    1.000
    O19      O        0.68927    0.46912    0.43055    1.000
    O19      O        0.06073    0.78088    0.93055    1.000
    O19      O        0.56073    0.96912    0.31945    1.000
    O19      O        0.18927    0.28088    0.81945    1.000
    O19      O        0.93055    0.68927    0.96912    1.000
    O19      O        0.43055    0.06073    0.28088    1.000
    O19      O        0.81945    0.56073    0.46912    1.000
    O19      O        0.31945    0.18927    0.78088    1.000
    O19      O        0.46912    0.93055    0.18927    1.000
    O19      O        0.78088    0.43055    0.56073    1.000
    O19      O        0.96912    0.81945    0.06073    1.000
    O19      O        0.28088    0.31945    0.68927    1.000
    O19      O        0.21912    0.93927    0.06945    1.000
    O19      O        0.53088    0.31073    0.56945    1.000
    O19      O        0.71912    0.81073    0.18055    1.000
    O19      O        0.03088    0.43927    0.68055    1.000
    O19      O        0.43927    0.18055    0.53088    1.000
    O19      O        0.81073    0.68055    0.21912    1.000
    O19      O        0.31073    0.06945    0.03088    1.000
    O19      O        0.93927    0.56945    0.71912    1.000
    O19      O        0.68055    0.71912    0.31073    1.000
    O19      O        0.18055    0.03088    0.93927    1.000
    O19      O        0.56945    0.21912    0.43927    1.000
    O19      O        0.06945    0.53088    0.81073    1.000
    O19      O        0.31073    0.53088    0.56945    1.000
    O19      O        0.93927    0.21912    0.06945    1.000
    O19      O        0.43927    0.03088    0.68055    1.000
    O19      O        0.81073    0.71912    0.18055    1.000
    O19      O        0.06945    0.31073    0.03088    1.000
    O19      O        0.56945    0.93927    0.71912    1.000
    O19      O        0.18055    0.43927    0.53088    1.000
    O19      O        0.68055    0.81073    0.21912    1.000
    O19      O        0.53088    0.06945    0.81073    1.000
    O19      O        0.21912    0.56945    0.43927    1.000
    O19      O        0.03088    0.18055    0.93927    1.000
    O19      O        0.71912    0.68055    0.31073    1.000
    O19      O        0.78088    0.06073    0.93055    1.000
    O19      O        0.46912    0.68927    0.43055    1.000
    O19      O        0.28088    0.18927    0.81945    1.000
    O19      O        0.96912    0.56073    0.31945    1.000
    O19      O        0.56073    0.81945    0.46912    1.000
    O19      O        0.18927    0.31945    0.78088    1.000
    O19      O        0.68927    0.93055    0.96912    1.000
    O19      O        0.06073    0.43055    0.28088    1.000
    O19      O        0.31945    0.28088    0.68927    1.000
    O19      O        0.81945    0.96912    0.06073    1.000
    O19      O        0.43055    0.78088    0.56073    1.000
    O19      O        0.93055    0.46912    0.18927    1.000
    O20      O        0.63308    0.24336    0.92722    1.000
    O20      O        0.13308    0.50664    0.32278    1.000
    O20      O        0.61692    0.74336    0.82278    1.000
    O20      O        0.42722    0.11692    0.00664    1.000
    O20      O        0.92722    0.63308    0.24336    1.000
    O20      O        0.32278    0.13308    0.50664    1.000
    O20      O        0.82278    0.61692    0.74336    1.000
    O20      O        0.00664    0.42722    0.11692    1.000
    O20      O        0.24336    0.92722    0.63308    1.000
    O20      O        0.50664    0.32278    0.13308    1.000
    O20      O        0.74336    0.82278    0.61692    1.000
    O20      O        0.75664    0.36692    0.07278    1.000
    O20      O        0.99336    0.88308    0.57278    1.000
    O20      O        0.25664    0.38308    0.17722    1.000
    O20      O        0.49336    0.86692    0.67722    1.000
    O20      O        0.86692    0.67722    0.49336    1.000
    O20      O        0.38308    0.17722    0.25664    1.000
    O20      O        0.88308    0.57278    0.99336    1.000
    O20      O        0.36692    0.07278    0.75664    1.000
    O20      O        0.17722    0.25664    0.38308    1.000
    O20      O        0.67722    0.49336    0.86692    1.000
    O20      O        0.07278    0.75664    0.36692    1.000
    O20      O        0.57278    0.99336    0.88308    1.000
    O20      O        0.88308    0.99336    0.57278    1.000
    O20      O        0.36692    0.75664    0.07278    1.000
    O20      O        0.86692    0.49336    0.67722    1.000
    O20      O        0.38308    0.25664    0.17722    1.000
    O20      O        0.57278    0.88308    0.99336    1.000
    O20      O        0.07278    0.36692    0.75664    1.000
    O20      O        0.67722    0.86692    0.49336    1.000
    O20      O        0.17722    0.38308    0.25664    1.000
    O20      O        0.99336    0.57278    0.88308    1.000
    O20      O        0.75664    0.07278    0.36692    1.000
    O20      O        0.49336    0.67722    0.86692    1.000
    O20      O        0.25664    0.17722    0.38308    1.000
    O20      O        0.24336    0.63308    0.92722    1.000
    O20      O        0.00664    0.11692    0.42722    1.000
    O20      O        0.74336    0.61692    0.82278    1.000
    O20      O        0.50664    0.13308    0.32278    1.000
    O20      O        0.13308    0.32278    0.50664    1.000
    O20      O        0.61692    0.82278    0.74336    1.000
    O20      O        0.11692    0.42722    0.00664    1.000
    O20      O        0.63308    0.92722    0.24336    1.000
    O20      O        0.82278    0.74336    0.61692    1.000
    O20      O        0.32278    0.50664    0.13308    1.000
    O20      O        0.92722    0.24336    0.63308    1.000
    O20      O        0.42722    0.00664    0.11692    1.000
    O20      O        0.11692    0.50664    0.92722    1.000
    O20      O        0.63308    0.74336    0.42722    1.000
    O20      O        0.13308    0.00664    0.82278    1.000
    O20      O        0.61692    0.24336    0.32278    1.000
    O20      O        0.42722    0.61692    0.50664    1.000
    O20      O        0.92722    0.13308    0.74336    1.000
    O20      O        0.32278    0.63308    0.00664    1.000
    O20      O        0.82278    0.11692    0.24336    1.000
    O20      O        0.00664    0.92722    0.61692    1.000
    O20      O        0.24336    0.42722    0.13308    1.000
    O20      O        0.50664    0.82278    0.63308    1.000
    O20      O        0.74336    0.32278    0.11692    1.000
    O20      O        0.75664    0.86692    0.57278    1.000
    O20      O        0.99336    0.38308    0.07278    1.000
    O20      O        0.25664    0.88308    0.67722    1.000
    O20      O        0.49336    0.36692    0.17722    1.000
    O20      O        0.86692    0.17722    0.99336    1.000
    O20      O        0.38308    0.67722    0.75664    1.000
    O20      O        0.88308    0.07278    0.49336    1.000
    O20      O        0.36692    0.57278    0.25664    1.000
    O20      O        0.17722    0.75664    0.88308    1.000
    O20      O        0.67722    0.99336    0.36692    1.000
    O20      O        0.07278    0.25664    0.86692    1.000
    O20      O        0.57278    0.49336    0.38308    1.000
    O20      O        0.88308    0.49336    0.07278    1.000
    O20      O        0.36692    0.25664    0.57278    1.000
    O20      O        0.86692    0.99336    0.17722    1.000
    O20      O        0.38308    0.75664    0.67722    1.000
    O20      O        0.57278    0.38308    0.49336    1.000
    O20      O        0.07278    0.86692    0.25664    1.000
    O20      O        0.67722    0.36692    0.99336    1.000
    O20      O        0.17722    0.88308    0.75664    1.000
    O20      O        0.99336    0.07278    0.38308    1.000
    O20      O        0.75664    0.57278    0.86692    1.000
    O20      O        0.49336    0.17722    0.36692    1.000
    O20      O        0.25664    0.67722    0.88308    1.000
    O20      O        0.24336    0.13308    0.42722    1.000
    O20      O        0.00664    0.61692    0.92722    1.000
    O20      O        0.74336    0.11692    0.32278    1.000
    O20      O        0.50664    0.63308    0.82278    1.000
    O20      O        0.13308    0.82278    0.00664    1.000
    O20      O        0.61692    0.32278    0.24336    1.000
    O20      O        0.11692    0.92722    0.50664    1.000
    O20      O        0.63308    0.42722    0.74336    1.000
    O20      O        0.82278    0.24336    0.11692    1.000
    O20      O        0.32278    0.00664    0.63308    1.000
    O20      O        0.92722    0.74336    0.13308    1.000
    O20      O        0.42722    0.50664    0.61692    1.000
    O20      O        0.61692    0.00664    0.92722    1.000
    O20      O        0.13308    0.24336    0.42722    1.000
    O20      O        0.63308    0.50664    0.82278    1.000
    O20      O        0.11692    0.74336    0.32278    1.000
    O20      O        0.92722    0.11692    0.50664    1.000
    O20      O        0.42722    0.63308    0.74336    1.000
    O20      O        0.82278    0.13308    0.00664    1.000
    O20      O        0.32278    0.61692    0.24336    1.000
    O20      O        0.50664    0.42722    0.61692    1.000
    O20      O        0.74336    0.92722    0.13308    1.000
    O20      O        0.00664    0.32278    0.63308    1.000
    O20      O        0.24336    0.82278    0.11692    1.000
    O20      O        0.25664    0.36692    0.57278    1.000
    O20      O        0.49336    0.88308    0.07278    1.000
    O20      O        0.75664    0.38308    0.67722    1.000
    O20      O        0.99336    0.86692    0.17722    1.000
    O20      O        0.36692    0.67722    0.99336    1.000
    O20      O        0.88308    0.17722    0.75664    1.000
    O20      O        0.38308    0.57278    0.49336    1.000
    O20      O        0.86692    0.07278    0.25664    1.000
    O20      O        0.67722    0.25664    0.88308    1.000
    O20      O        0.17722    0.49336    0.36692    1.000
    O20      O        0.57278    0.75664    0.86692    1.000
    O20      O        0.07278    0.99336    0.38308    1.000
    O20      O        0.38308    0.99336    0.07278    1.000
    O20      O        0.86692    0.75664    0.57278    1.000
    O20      O        0.36692    0.49336    0.17722    1.000
    O20      O        0.88308    0.25664    0.67722    1.000
    O20      O        0.07278    0.88308    0.49336    1.000
    O20      O        0.57278    0.36692    0.25664    1.000
    O20      O        0.17722    0.86692    0.99336    1.000
    O20      O        0.67722    0.38308    0.75664    1.000
    O20      O        0.49336    0.57278    0.38308    1.000
    O20      O        0.25664    0.07278    0.86692    1.000
    O20      O        0.99336    0.67722    0.36692    1.000
    O20      O        0.75664    0.17722    0.88308    1.000
    O20      O        0.74336    0.63308    0.42722    1.000
    O20      O        0.50664    0.11692    0.92722    1.000
    O20      O        0.24336    0.61692    0.32278    1.000
    O20      O        0.00664    0.13308    0.82278    1.000
    O20      O        0.63308    0.32278    0.00664    1.000
    O20      O        0.11692    0.82278    0.24336    1.000
    O20      O        0.61692    0.42722    0.50664    1.000
    O20      O        0.13308    0.92722    0.74336    1.000
    O20      O        0.32278    0.74336    0.11692    1.000
    O20      O        0.82278    0.50664    0.63308    1.000
    O20      O        0.42722    0.24336    0.13308    1.000
    O20      O        0.92722    0.00664    0.61692    1.000
    O20      O        0.61692    0.50664    0.42722    1.000
    O20      O        0.13308    0.74336    0.92722    1.000
    O20      O        0.63308    0.00664    0.32278    1.000
    O20      O        0.11692    0.24336    0.82278    1.000
    O20      O        0.92722    0.61692    0.00664    1.000
    O20      O        0.42722    0.13308    0.24336    1.000
    O20      O        0.82278    0.63308    0.50664    1.000
    O20      O        0.32278    0.11692    0.74336    1.000
    O20      O        0.50664    0.92722    0.11692    1.000
    O20      O        0.74336    0.42722    0.63308    1.000
    O20      O        0.00664    0.82278    0.13308    1.000
    O20      O        0.24336    0.32278    0.61692    1.000
    O20      O        0.25664    0.86692    0.07278    1.000
    O20      O        0.49336    0.38308    0.57278    1.000
    O20      O        0.75664    0.88308    0.17722    1.000
    O20      O        0.99336    0.36692    0.67722    1.000
    O20      O        0.36692    0.17722    0.49336    1.000
    O20      O        0.88308    0.67722    0.25664    1.000
    O20      O        0.38308    0.07278    0.99336    1.000
    O20      O        0.86692    0.57278    0.75664    1.000
    O20      O        0.67722    0.75664    0.38308    1.000
    O20      O        0.17722    0.99336    0.86692    1.000
    O20      O        0.57278    0.25664    0.36692    1.000
    O20      O        0.07278    0.49336    0.88308    1.000
    O20      O        0.38308    0.49336    0.57278    1.000
    O20      O        0.86692    0.25664    0.07278    1.000
    O20      O        0.36692    0.99336    0.67722    1.000
    O20      O        0.88308    0.75664    0.17722    1.000
    O20      O        0.07278    0.38308    0.99336    1.000
    O20      O        0.57278    0.86692    0.75664    1.000
    O20      O        0.17722    0.36692    0.49336    1.000
    O20      O        0.67722    0.88308    0.25664    1.000
    O20      O        0.49336    0.07278    0.88308    1.000
    O20      O        0.25664    0.57278    0.36692    1.000
    O20      O        0.99336    0.17722    0.86692    1.000
    O20      O        0.75664    0.67722    0.38308    1.000
    O20      O        0.74336    0.13308    0.92722    1.000
    O20      O        0.50664    0.61692    0.42722    1.000
    O20      O        0.24336    0.11692    0.82278    1.000
    O20      O        0.00664    0.63308    0.32278    1.000
    O20      O        0.63308    0.82278    0.50664    1.000
    O20      O        0.11692    0.32278    0.74336    1.000
    O20      O        0.61692    0.92722    0.00664    1.000
    O20      O        0.13308    0.42722    0.24336    1.000
    O20      O        0.32278    0.24336    0.61692    1.000
    O20      O        0.82278    0.00664    0.13308    1.000
    O20      O        0.42722    0.74336    0.63308    1.000
    O20      O        0.92722    0.50664    0.11692    1.000
    O21      O        0.62353    0.25338    0.90475    1.000
    O21      O        0.12353    0.49662    0.34525    1.000
    O21      O        0.62647    0.75338    0.84525    1.000
    O21      O        0.40475    0.12647    0.99662    1.000
    O21      O        0.90475    0.62353    0.25338    1.000
    O21      O        0.34525    0.12353    0.49662    1.000
    O21      O        0.84525    0.62647    0.75338    1.000
    O21      O        0.99662    0.40475    0.12647    1.000
    O21      O        0.25338    0.90475    0.62353    1.000
    O21      O        0.49662    0.34525    0.12353    1.000
    O21      O        0.75338    0.84525    0.62647    1.000
    O21      O        0.74662    0.37647    0.09525    1.000
    O21      O        0.00338    0.87353    0.59525    1.000
    O21      O        0.24662    0.37353    0.15475    1.000
    O21      O        0.50338    0.87647    0.65475    1.000
    O21      O        0.87647    0.65475    0.50338    1.000
    O21      O        0.37353    0.15475    0.24662    1.000
    O21      O        0.87353    0.59525    0.00338    1.000
    O21      O        0.37647    0.09525    0.74662    1.000
    O21      O        0.15475    0.24662    0.37353    1.000
    O21      O        0.65475    0.50338    0.87647    1.000
    O21      O        0.09525    0.74662    0.37647    1.000
    O21      O        0.59525    0.00338    0.87353    1.000
    O21      O        0.87353    0.00338    0.59525    1.000
    O21      O        0.37647    0.74662    0.09525    1.000
    O21      O        0.87647    0.50338    0.65475    1.000
    O21      O        0.37353    0.24662    0.15475    1.000
    O21      O        0.59525    0.87353    0.00338    1.000
    O21      O        0.09525    0.37647    0.74662    1.000
    O21      O        0.65475    0.87647    0.50338    1.000
    O21      O        0.15475    0.37353    0.24662    1.000
    O21      O        0.00338    0.59525    0.87353    1.000
    O21      O        0.74662    0.09525    0.37647    1.000
    O21      O        0.50338    0.65475    0.87647    1.000
    O21      O        0.24662    0.15475    0.37353    1.000
    O21      O        0.25338    0.62353    0.90475    1.000
    O21      O        0.99662    0.12647    0.40475    1.000
    O21      O        0.75338    0.62647    0.84525    1.000
    O21      O        0.49662    0.12353    0.34525    1.000
    O21      O        0.12353    0.34525    0.49662    1.000
    O21      O        0.62647    0.84525    0.75338    1.000
    O21      O        0.12647    0.40475    0.99662    1.000
    O21      O        0.62353    0.90475    0.25338    1.000
    O21      O        0.84525    0.75338    0.62647    1.000
    O21      O        0.34525    0.49662    0.12353    1.000
    O21      O        0.90475    0.25338    0.62353    1.000
    O21      O        0.40475    0.99662    0.12647    1.000
    O21      O        0.12647    0.49662    0.90475    1.000
    O21      O        0.62353    0.75338    0.40475    1.000
    O21      O        0.12353    0.99662    0.84525    1.000
    O21      O        0.62647    0.25338    0.34525    1.000
    O21      O        0.40475    0.62647    0.49662    1.000
    O21      O        0.90475    0.12353    0.75338    1.000
    O21      O        0.34525    0.62353    0.99662    1.000
    O21      O        0.84525    0.12647    0.25338    1.000
    O21      O        0.99662    0.90475    0.62647    1.000
    O21      O        0.25338    0.40475    0.12353    1.000
    O21      O        0.49662    0.84525    0.62353    1.000
    O21      O        0.75338    0.34525    0.12647    1.000
    O21      O        0.74662    0.87647    0.59525    1.000
    O21      O        0.00338    0.37353    0.09525    1.000
    O21      O        0.24662    0.87353    0.65475    1.000
    O21      O        0.50338    0.37647    0.15475    1.000
    O21      O        0.87647    0.15475    0.00338    1.000
    O21      O        0.37353    0.65475    0.74662    1.000
    O21      O        0.87353    0.09525    0.50338    1.000
    O21      O        0.37647    0.59525    0.24662    1.000
    O21      O        0.15475    0.74662    0.87353    1.000
    O21      O        0.65475    0.00338    0.37647    1.000
    O21      O        0.09525    0.24662    0.87647    1.000
    O21      O        0.59525    0.50338    0.37353    1.000
    O21      O        0.87353    0.50338    0.09525    1.000
    O21      O        0.37647    0.24662    0.59525    1.000
    O21      O        0.87647    0.00338    0.15475    1.000
    O21      O        0.37353    0.74662    0.65475    1.000
    O21      O        0.59525    0.37353    0.50338    1.000
    O21      O        0.09525    0.87647    0.24662    1.000
    O21      O        0.65475    0.37647    0.00338    1.000
    O21      O        0.15475    0.87353    0.74662    1.000
    O21      O        0.00338    0.09525    0.37353    1.000
    O21      O        0.74662    0.59525    0.87647    1.000
    O21      O        0.50338    0.15475    0.37647    1.000
    O21      O        0.24662    0.65475    0.87353    1.000
    O21      O        0.25338    0.12353    0.40475    1.000
    O21      O        0.99662    0.62647    0.90475    1.000
    O21      O        0.75338    0.12647    0.34525    1.000
    O21      O        0.49662    0.62353    0.84525    1.000
    O21      O        0.12353    0.84525    0.99662    1.000
    O21      O        0.62647    0.34525    0.25338    1.000
    O21      O        0.12647    0.90475    0.49662    1.000
    O21      O        0.62353    0.40475    0.75338    1.000
    O21      O        0.84525    0.25338    0.12647    1.000
    O21      O        0.34525    0.99662    0.62353    1.000
    O21      O        0.90475    0.75338    0.12353    1.000
    O21      O        0.40475    0.49662    0.62647    1.000
    O21      O        0.62647    0.99662    0.90475    1.000
    O21      O        0.12353    0.25338    0.40475    1.000
    O21      O        0.62353    0.49662    0.84525    1.000
    O21      O        0.12647    0.75338    0.34525    1.000
    O21      O        0.90475    0.12647    0.49662    1.000
    O21      O        0.40475    0.62353    0.75338    1.000
    O21      O        0.84525    0.12353    0.99662    1.000
    O21      O        0.34525    0.62647    0.25338    1.000
    O21      O        0.49662    0.40475    0.62647    1.000
    O21      O        0.75338    0.90475    0.12353    1.000
    O21      O        0.99662    0.34525    0.62353    1.000
    O21      O        0.25338    0.84525    0.12647    1.000
    O21      O        0.24662    0.37647    0.59525    1.000
    O21      O        0.50338    0.87353    0.09525    1.000
    O21      O        0.74662    0.37353    0.65475    1.000
    O21      O        0.00338    0.87647    0.15475    1.000
    O21      O        0.37647    0.65475    0.00338    1.000
    O21      O        0.87353    0.15475    0.74662    1.000
    O21      O        0.37353    0.59525    0.50338    1.000
    O21      O        0.87647    0.09525    0.24662    1.000
    O21      O        0.65475    0.24662    0.87353    1.000
    O21      O        0.15475    0.50338    0.37647    1.000
    O21      O        0.59525    0.74662    0.87647    1.000
    O21      O        0.09525    0.00338    0.37353    1.000
    O21      O        0.37353    0.00338    0.09525    1.000
    O21      O        0.87647    0.74662    0.59525    1.000
    O21      O        0.37647    0.50338    0.15475    1.000
    O21      O        0.87353    0.24662    0.65475    1.000
    O21      O        0.09525    0.87353    0.50338    1.000
    O21      O        0.59525    0.37647    0.24662    1.000
    O21      O        0.15475    0.87647    0.00338    1.000
    O21      O        0.65475    0.37353    0.74662    1.000
    O21      O        0.50338    0.59525    0.37353    1.000
    O21      O        0.24662    0.09525    0.87647    1.000
    O21      O        0.00338    0.65475    0.37647    1.000
    O21      O        0.74662    0.15475    0.87353    1.000
    O21      O        0.75338    0.62353    0.40475    1.000
    O21      O        0.49662    0.12647    0.90475    1.000
    O21      O        0.25338    0.62647    0.34525    1.000
    O21      O        0.99662    0.12353    0.84525    1.000
    O21      O        0.62353    0.34525    0.99662    1.000
    O21      O        0.12647    0.84525    0.25338    1.000
    O21      O        0.62647    0.40475    0.49662    1.000
    O21      O        0.12353    0.90475    0.75338    1.000
    O21      O        0.34525    0.75338    0.12647    1.000
    O21      O        0.84525    0.49662    0.62353    1.000
    O21      O        0.40475    0.25338    0.12353    1.000
    O21      O        0.90475    0.99662    0.62647    1.000
    O21      O        0.62647    0.49662    0.40475    1.000
    O21      O        0.12353    0.75338    0.90475    1.000
    O21      O        0.62353    0.99662    0.34525    1.000
    O21      O        0.12647    0.25338    0.84525    1.000
    O21      O        0.90475    0.62647    0.99662    1.000
    O21      O        0.40475    0.12353    0.25338    1.000
    O21      O        0.84525    0.62353    0.49662    1.000
    O21      O        0.34525    0.12647    0.75338    1.000
    O21      O        0.49662    0.90475    0.12647    1.000
    O21      O        0.75338    0.40475    0.62353    1.000
    O21      O        0.99662    0.84525    0.12353    1.000
    O21      O        0.25338    0.34525    0.62647    1.000
    O21      O        0.24662    0.87647    0.09525    1.000
    O21      O        0.50338    0.37353    0.59525    1.000
    O21      O        0.74662    0.87353    0.15475    1.000
    O21      O        0.00338    0.37647    0.65475    1.000
    O21      O        0.37647    0.15475    0.50338    1.000
    O21      O        0.87353    0.65475    0.24662    1.000
    O21      O        0.37353    0.09525    0.00338    1.000
    O21      O        0.87647    0.59525    0.74662    1.000
    O21      O        0.65475    0.74662    0.37353    1.000
    O21      O        0.15475    0.00338    0.87647    1.000
    O21      O        0.59525    0.24662    0.37647    1.000
    O21      O        0.09525    0.50338    0.87353    1.000
    O21      O        0.37353    0.50338    0.59525    1.000
    O21      O        0.87647    0.24662    0.09525    1.000
    O21      O        0.37647    0.00338    0.65475    1.000
    O21      O        0.87353    0.74662    0.15475    1.000
    O21      O        0.09525    0.37353    0.00338    1.000
    O21      O        0.59525    0.87647    0.74662    1.000
    O21      O        0.15475    0.37647    0.50338    1.000
    O21      O        0.65475    0.87353    0.24662    1.000
    O21      O        0.50338    0.09525    0.87353    1.000
    O21      O        0.24662    0.59525    0.37647    1.000
    O21      O        0.00338    0.15475    0.87647    1.000
    O21      O        0.74662    0.65475    0.37353    1.000
    O21      O        0.75338    0.12353    0.90475    1.000
    O21      O        0.49662    0.62647    0.40475    1.000
    O21      O        0.25338    0.12647    0.84525    1.000
    O21      O        0.99662    0.62353    0.34525    1.000
    O21      O        0.62353    0.84525    0.49662    1.000
    O21      O        0.12647    0.34525    0.75338    1.000
    O21      O        0.62647    0.90475    0.99662    1.000
    O21      O        0.12353    0.40475    0.25338    1.000
    O21      O        0.34525    0.25338    0.62647    1.000
    O21      O        0.84525    0.99662    0.12353    1.000
    O21      O        0.40475    0.75338    0.62353    1.000
    O21      O        0.90475    0.49662    0.12647    1.000
    O22      O        0.81102    0.36185    0.31102    1.000
    O22      O        0.31102    0.38815    0.93898    1.000
    O22      O        0.43898    0.86185    0.43898    1.000
    O22      O        0.81102    0.93898    0.88815    1.000
    O22      O        0.31102    0.81102    0.36185    1.000
    O22      O        0.93898    0.31102    0.38815    1.000
    O22      O        0.43898    0.43898    0.86185    1.000
    O22      O        0.88815    0.81102    0.93898    1.000
    O22      O        0.36185    0.31102    0.81102    1.000
    O22      O        0.38815    0.93898    0.31102    1.000
    O22      O        0.86185    0.43898    0.43898    1.000
    O22      O        0.63815    0.18898    0.68898    1.000
    O22      O        0.11185    0.06102    0.18898    1.000
    O22      O        0.13815    0.56102    0.56102    1.000
    O22      O        0.61185    0.68898    0.06102    1.000
    O22      O        0.68898    0.06102    0.61185    1.000
    O22      O        0.56102    0.56102    0.13815    1.000
    O22      O        0.06102    0.18898    0.11185    1.000
    O22      O        0.18898    0.68898    0.63815    1.000
    O22      O        0.56102    0.13815    0.56102    1.000
    O22      O        0.06102    0.61185    0.68898    1.000
    O22      O        0.68898    0.63815    0.18898    1.000
    O22      O        0.18898    0.11185    0.06102    1.000
    O22      O        0.06102    0.11185    0.18898    1.000
    O22      O        0.18898    0.63815    0.68898    1.000
    O22      O        0.68898    0.61185    0.06102    1.000
    O22      O        0.18898    0.06102    0.11185    1.000
    O22      O        0.68898    0.18898    0.63815    1.000
    O22      O        0.06102    0.68898    0.61185    1.000
    O22      O        0.11185    0.18898    0.06102    1.000
    O22      O        0.63815    0.68898    0.18898    1.000
    O22      O        0.61185    0.06102    0.68898    1.000
    O22      O        0.36185    0.81102    0.31102    1.000
    O22      O        0.88815    0.93898    0.81102    1.000
    O22      O        0.38815    0.31102    0.93898    1.000
    O22      O        0.31102    0.93898    0.38815    1.000
    O22      O        0.93898    0.81102    0.88815    1.000
    O22      O        0.81102    0.31102    0.36185    1.000
    O22      O        0.93898    0.38815    0.31102    1.000
    O22      O        0.31102    0.36185    0.81102    1.000
    O22      O        0.81102    0.88815    0.93898    1.000
    O22      O        0.81102    0.86185    0.81102    1.000
    O22      O        0.31102    0.88815    0.43898    1.000
    O22      O        0.43898    0.36185    0.93898    1.000
    O22      O        0.81102    0.43898    0.38815    1.000
    O22      O        0.31102    0.31102    0.86185    1.000
    O22      O        0.43898    0.93898    0.36185    1.000
    O22      O        0.88815    0.31102    0.43898    1.000
    O22      O        0.38815    0.43898    0.81102    1.000
    O22      O        0.86185    0.93898    0.93898    1.000
    O22      O        0.11185    0.56102    0.68898    1.000
    O22      O        0.13815    0.06102    0.06102    1.000
    O22      O        0.61185    0.18898    0.56102    1.000
    O22      O        0.68898    0.56102    0.11185    1.000
    O22      O        0.56102    0.06102    0.63815    1.000
    O22      O        0.18898    0.18898    0.13815    1.000
    O22      O        0.56102    0.63815    0.06102    1.000
    O22      O        0.68898    0.13815    0.68898    1.000
    O22      O        0.18898    0.61185    0.56102    1.000
    O22      O        0.18898    0.13815    0.18898    1.000
    O22      O        0.68898    0.11185    0.56102    1.000
    O22      O        0.18898    0.56102    0.61185    1.000
    O22      O        0.68898    0.68898    0.13815    1.000
    O22      O        0.11185    0.68898    0.56102    1.000
    O22      O        0.61185    0.56102    0.18898    1.000
    O22      O        0.88815    0.43898    0.31102    1.000
    O22      O        0.38815    0.81102    0.43898    1.000
    O22      O        0.31102    0.43898    0.88815    1.000
    O22      O        0.81102    0.81102    0.86185    1.000
    O22      O        0.31102    0.86185    0.31102    1.000
    O22      O        0.81102    0.38815    0.43898    1.000
    O22      O        0.43898    0.88815    0.31102    1.000
    O22      O        0.93898    0.86185    0.93898    1.000
    O22      O        0.43898    0.31102    0.88815    1.000
    O22      O        0.93898    0.43898    0.36185    1.000
    O22      O        0.86185    0.31102    0.31102    1.000
    O22      O        0.36185    0.43898    0.93898    1.000
    O22      O        0.13815    0.18898    0.18898    1.000
    O22      O        0.63815    0.56102    0.06102    1.000
    O22      O        0.06102    0.56102    0.63815    1.000
    O22      O        0.56102    0.18898    0.61185    1.000
    O22      O        0.06102    0.13815    0.06102    1.000
    O22      O        0.56102    0.61185    0.18898    1.000
    O22      O        0.56102    0.11185    0.68898    1.000
    O22      O        0.56102    0.68898    0.11185    1.000
    O22      O        0.13815    0.68898    0.68898    1.000
    O22      O        0.86185    0.81102    0.81102    1.000
    O22      O        0.43898    0.81102    0.38815    1.000
    O22      O        0.43898    0.38815    0.81102    1.000
    O22      O        0.93898    0.36185    0.43898    1.000
    O22      O        0.93898    0.93898    0.86185    1.000
    O22      O        0.36185    0.93898    0.43898    1.000
    O22      O        0.63815    0.06102    0.56102    1.000
    O22      O        0.06102    0.06102    0.13815    1.000
    O22      O        0.06102    0.63815    0.56102    1.000
    O23      O        0.40585    0.96127    0.21087    1.000
    O23      O        0.90585    0.78873    0.03913    1.000
    O23      O        0.84415    0.46127    0.53913    1.000
    O23      O        0.71087    0.34415    0.28873    1.000
    O23      O        0.21087    0.40585    0.96127    1.000
    O23      O        0.03913    0.90585    0.78873    1.000
    O23      O        0.53913    0.84415    0.46127    1.000
    O23      O        0.28873    0.71087    0.34415    1.000
    O23      O        0.96127    0.21087    0.40585    1.000
    O23      O        0.78873    0.03913    0.90585    1.000
    O23      O        0.46127    0.53913    0.84415    1.000
    O23      O        0.03873    0.59415    0.78913    1.000
    O23      O        0.71127    0.65585    0.28913    1.000
    O23      O        0.53873    0.15585    0.46087    1.000
    O23      O        0.21127    0.09415    0.96087    1.000
    O23      O        0.09415    0.96087    0.21127    1.000
    O23      O        0.15585    0.46087    0.53873    1.000
    O23      O        0.65585    0.28913    0.71127    1.000
    O23      O        0.59415    0.78913    0.03873    1.000
    O23      O        0.46087    0.53873    0.15585    1.000
    O23      O        0.96087    0.21127    0.09415    1.000
    O23      O        0.78913    0.03873    0.59415    1.000
    O23      O        0.28913    0.71127    0.65585    1.000
    O23      O        0.65585    0.71127    0.28913    1.000
    O23      O        0.59415    0.03873    0.78913    1.000
    O23      O        0.09415    0.21127    0.96087    1.000
    O23      O        0.15585    0.53873    0.46087    1.000
    O23      O        0.28913    0.65585    0.71127    1.000
    O23      O        0.78913    0.59415    0.03873    1.000
    O23      O        0.96087    0.09415    0.21127    1.000
    O23      O        0.46087    0.15585    0.53873    1.000
    O23      O        0.71127    0.28913    0.65585    1.000
    O23      O        0.03873    0.78913    0.59415    1.000
    O23      O        0.21127    0.96087    0.09415    1.000
    O23      O        0.53873    0.46087    0.15585    1.000
    O23      O        0.96127    0.40585    0.21087    1.000
    O23      O        0.28873    0.34415    0.71087    1.000
    O23      O        0.46127    0.84415    0.53913    1.000
    O23      O        0.78873    0.90585    0.03913    1.000
    O23      O        0.90585    0.03913    0.78873    1.000
    O23      O        0.84415    0.53913    0.46127    1.000
    O23      O        0.34415    0.71087    0.28873    1.000
    O23      O        0.40585    0.21087    0.96127    1.000
    O23      O        0.53913    0.46127    0.84415    1.000
    O23      O        0.03913    0.78873    0.90585    1.000
    O23      O        0.21087    0.96127    0.40585    1.000
    O23      O        0.71087    0.28873    0.34415    1.000
    O23      O        0.34415    0.78873    0.21087    1.000
    O23      O        0.40585    0.46127    0.71087    1.000
    O23      O        0.90585    0.28873    0.53913    1.000
    O23      O        0.84415    0.96127    0.03913    1.000
    O23      O        0.71087    0.84415    0.78873    1.000
    O23      O        0.21087    0.90585    0.46127    1.000
    O23      O        0.03913    0.40585    0.28873    1.000
    O23      O        0.53913    0.34415    0.96127    1.000
    O23      O        0.28873    0.21087    0.84415    1.000
    O23      O        0.96127    0.71087    0.90585    1.000
    O23      O        0.78873    0.53913    0.40585    1.000
    O23      O        0.46127    0.03913    0.34415    1.000
    O23      O        0.03873    0.09415    0.28913    1.000
    O23      O        0.71127    0.15585    0.78913    1.000
    O23      O        0.53873    0.65585    0.96087    1.000
    O23      O        0.21127    0.59415    0.46087    1.000
    O23      O        0.09415    0.46087    0.71127    1.000
    O23      O        0.15585    0.96087    0.03873    1.000
    O23      O        0.65585    0.78913    0.21127    1.000
    O23      O        0.59415    0.28913    0.53873    1.000
    O23      O        0.46087    0.03873    0.65585    1.000
    O23      O        0.96087    0.71127    0.59415    1.000
    O23      O        0.78913    0.53873    0.09415    1.000
    O23      O        0.28913    0.21127    0.15585    1.000
    O23      O        0.65585    0.21127    0.78913    1.000
    O23      O        0.59415    0.53873    0.28913    1.000
    O23      O        0.09415    0.71127    0.46087    1.000
    O23      O        0.15585    0.03873    0.96087    1.000
    O23      O        0.28913    0.15585    0.21127    1.000
    O23      O        0.78913    0.09415    0.53873    1.000
    O23      O        0.96087    0.59415    0.71127    1.000
    O23      O        0.46087    0.65585    0.03873    1.000
    O23      O        0.71127    0.78913    0.15585    1.000
    O23      O        0.03873    0.28913    0.09415    1.000
    O23      O        0.21127    0.46087    0.59415    1.000
    O23      O        0.53873    0.96087    0.65585    1.000
    O23      O        0.96127    0.90585    0.71087    1.000
    O23      O        0.28873    0.84415    0.21087    1.000
    O23      O        0.46127    0.34415    0.03913    1.000
    O23      O        0.78873    0.40585    0.53913    1.000
    O23      O        0.90585    0.53913    0.28873    1.000
    O23      O        0.84415    0.03913    0.96127    1.000
    O23      O        0.34415    0.21087    0.78873    1.000
    O23      O        0.40585    0.71087    0.46127    1.000
    O23      O        0.53913    0.96127    0.34415    1.000
    O23      O        0.03913    0.28873    0.40585    1.000
    O23      O        0.21087    0.46127    0.90585    1.000
    O23      O        0.71087    0.78873    0.84415    1.000
    O23      O        0.84415    0.28873    0.21087    1.000
    O23      O        0.90585    0.96127    0.71087    1.000
    O23      O        0.40585    0.78873    0.53913    1.000
    O23      O        0.34415    0.46127    0.03913    1.000
    O23      O        0.21087    0.34415    0.78873    1.000
    O23      O        0.71087    0.40585    0.46127    1.000
    O23      O        0.53913    0.90585    0.28873    1.000
    O23      O        0.03913    0.84415    0.96127    1.000
    O23      O        0.78873    0.71087    0.84415    1.000
    O23      O        0.46127    0.21087    0.90585    1.000
    O23      O        0.28873    0.03913    0.40585    1.000
    O23      O        0.96127    0.53913    0.34415    1.000
    O23      O        0.53873    0.59415    0.28913    1.000
    O23      O        0.21127    0.65585    0.78913    1.000
    O23      O        0.03873    0.15585    0.96087    1.000
    O23      O        0.71127    0.09415    0.46087    1.000
    O23      O        0.59415    0.96087    0.71127    1.000
    O23      O        0.65585    0.46087    0.03873    1.000
    O23      O        0.15585    0.28913    0.21127    1.000
    O23      O        0.09415    0.78913    0.53873    1.000
    O23      O        0.96087    0.53873    0.65585    1.000
    O23      O        0.46087    0.21127    0.59415    1.000
    O23      O        0.28913    0.03873    0.09415    1.000
    O23      O        0.78913    0.71127    0.15585    1.000
    O23      O        0.15585    0.71127    0.78913    1.000
    O23      O        0.09415    0.03873    0.28913    1.000
    O23      O        0.59415    0.21127    0.46087    1.000
    O23      O        0.65585    0.53873    0.96087    1.000
    O23      O        0.78913    0.65585    0.21127    1.000
    O23      O        0.28913    0.59415    0.53873    1.000
    O23      O        0.46087    0.09415    0.71127    1.000
    O23      O        0.96087    0.15585    0.03873    1.000
    O23      O        0.21127    0.28913    0.15585    1.000
    O23      O        0.53873    0.78913    0.09415    1.000
    O23      O        0.71127    0.96087    0.59415    1.000
    O23      O        0.03873    0.46087    0.65585    1.000
    O23      O        0.46127    0.40585    0.71087    1.000
    O23      O        0.78873    0.34415    0.21087    1.000
    O23      O        0.96127    0.84415    0.03913    1.000
    O23      O        0.28873    0.90585    0.53913    1.000
    O23      O        0.40585    0.03913    0.28873    1.000
    O23      O        0.34415    0.53913    0.96127    1.000
    O23      O        0.84415    0.71087    0.78873    1.000
    O23      O        0.90585    0.21087    0.46127    1.000
    O23      O        0.03913    0.46127    0.34415    1.000
    O23      O        0.53913    0.78873    0.40585    1.000
    O23      O        0.71087    0.96127    0.90585    1.000
    O23      O        0.21087    0.28873    0.84415    1.000
    O23      O        0.84415    0.78873    0.71087    1.000
    O23      O        0.90585    0.46127    0.21087    1.000
    O23      O        0.40585    0.28873    0.03913    1.000
    O23      O        0.34415    0.96127    0.53913    1.000
    O23      O        0.21087    0.84415    0.28873    1.000
    O23      O        0.71087    0.90585    0.96127    1.000
    O23      O        0.53913    0.40585    0.78873    1.000
    O23      O        0.03913    0.34415    0.46127    1.000
    O23      O        0.78873    0.21087    0.34415    1.000
    O23      O        0.46127    0.71087    0.40585    1.000
    O23      O        0.28873    0.53913    0.90585    1.000
    O23      O        0.96127    0.03913    0.84415    1.000
    O23      O        0.53873    0.09415    0.78913    1.000
    O23      O        0.21127    0.15585    0.28913    1.000
    O23      O        0.03873    0.65585    0.46087    1.000
    O23      O        0.71127    0.59415    0.96087    1.000
    O23      O        0.59415    0.46087    0.21127    1.000
    O23      O        0.65585    0.96087    0.53873    1.000
    O23      O        0.15585    0.78913    0.71127    1.000
    O23      O        0.09415    0.28913    0.03873    1.000
    O23      O        0.96087    0.03873    0.15585    1.000
    O23      O        0.46087    0.71127    0.09415    1.000
    O23      O        0.28913    0.53873    0.59415    1.000
    O23      O        0.78913    0.21127    0.65585    1.000
    O23      O        0.15585    0.21127    0.28913    1.000
    O23      O        0.09415    0.53873    0.78913    1.000
    O23      O        0.59415    0.71127    0.96087    1.000
    O23      O        0.65585    0.03873    0.46087    1.000
    O23      O        0.78913    0.15585    0.71127    1.000
    O23      O        0.28913    0.09415    0.03873    1.000
    O23      O        0.46087    0.59415    0.21127    1.000
    O23      O        0.96087    0.65585    0.53873    1.000
    O23      O        0.21127    0.78913    0.65585    1.000
    O23      O        0.53873    0.28913    0.59415    1.000
    O23      O        0.71127    0.46087    0.09415    1.000
    O23      O        0.03873    0.96087    0.15585    1.000
    O23      O        0.46127    0.90585    0.21087    1.000
    O23      O        0.78873    0.84415    0.71087    1.000
    O23      O        0.96127    0.34415    0.53913    1.000
    O23      O        0.28873    0.40585    0.03913    1.000
    O23      O        0.40585    0.53913    0.78873    1.000
    O23      O        0.34415    0.03913    0.46127    1.000
    O23      O        0.84415    0.21087    0.28873    1.000
    O23      O        0.90585    0.71087    0.96127    1.000
    O23      O        0.03913    0.96127    0.84415    1.000
    O23      O        0.53913    0.28873    0.90585    1.000
    O23      O        0.71087    0.46127    0.40585    1.000
    O23      O        0.21087    0.78873    0.34415    1.000
    O24      O        0.48107    0.04358    0.26893    1.000
    O24      O        0.98107    0.70642    0.98107    1.000
    O24      O        0.76893    0.54358    0.48107    1.000
    O24      O        0.76893    0.26893    0.20642    1.000
    O24      O        0.26893    0.48107    0.04358    1.000
    O24      O        0.98107    0.98107    0.70642    1.000
    O24      O        0.48107    0.76893    0.54358    1.000
    O24      O        0.20642    0.76893    0.26893    1.000
    O24      O        0.04358    0.26893    0.48107    1.000
    O24      O        0.70642    0.98107    0.98107    1.000
    O24      O        0.54358    0.48107    0.76893    1.000
    O24      O        0.95642    0.51893    0.73107    1.000
    O24      O        0.79358    0.73107    0.23107    1.000
    O24      O        0.45642    0.23107    0.51893    1.000
    O24      O        0.29358    0.01893    0.01893    1.000
    O24      O        0.01893    0.01893    0.29358    1.000
    O24      O        0.23107    0.51893    0.45642    1.000
    O24      O        0.73107    0.23107    0.79358    1.000
    O24      O        0.51893    0.73107    0.95642    1.000
    O24      O        0.51893    0.45642    0.23107    1.000
    O24      O        0.01893    0.29358    0.01893    1.000
    O24      O        0.73107    0.95642    0.51893    1.000
    O24      O        0.23107    0.79358    0.73107    1.000
    O24      O        0.73107    0.79358    0.23107    1.000
    O24      O        0.51893    0.95642    0.73107    1.000
    O24      O        0.23107    0.45642    0.51893    1.000
    O24      O        0.23107    0.73107    0.79358    1.000
    O24      O        0.73107    0.51893    0.95642    1.000
    O24      O        0.51893    0.23107    0.45642    1.000
    O24      O        0.79358    0.23107    0.73107    1.000
    O24      O        0.95642    0.73107    0.51893    1.000
    O24      O        0.45642    0.51893    0.23107    1.000
    O24      O        0.04358    0.48107    0.26893    1.000
    O24      O        0.20642    0.26893    0.76893    1.000
    O24      O        0.54358    0.76893    0.48107    1.000
    O24      O        0.76893    0.48107    0.54358    1.000
    O24      O        0.26893    0.76893    0.20642    1.000
    O24      O        0.48107    0.26893    0.04358    1.000
    O24      O        0.48107    0.54358    0.76893    1.000
    O24      O        0.26893    0.04358    0.48107    1.000
    O24      O        0.76893    0.20642    0.26893    1.000
    O24      O        0.26893    0.70642    0.26893    1.000
    O24      O        0.98107    0.20642    0.48107    1.000
    O24      O        0.76893    0.04358    0.98107    1.000
    O24      O        0.76893    0.76893    0.70642    1.000
    O24      O        0.26893    0.98107    0.54358    1.000
    O24      O        0.98107    0.48107    0.20642    1.000
    O24      O        0.04358    0.76893    0.98107    1.000
    O24      O        0.70642    0.48107    0.48107    1.000
    O24      O        0.54358    0.98107    0.26893    1.000
    O24      O        0.95642    0.01893    0.23107    1.000
    O24      O        0.45642    0.73107    0.01893    1.000
    O24      O        0.29358    0.51893    0.51893    1.000
    O24      O        0.01893    0.51893    0.79358    1.000
    O24      O        0.23107    0.01893    0.95642    1.000
    O24      O        0.73107    0.73107    0.29358    1.000
    O24      O        0.01893    0.79358    0.51893    1.000
    O24      O        0.73107    0.45642    0.01893    1.000
    O24      O        0.23107    0.29358    0.23107    1.000
    O24      O        0.73107    0.29358    0.73107    1.000
    O24      O        0.23107    0.95642    0.01893    1.000
    O24      O        0.23107    0.23107    0.29358    1.000
    O24      O        0.73107    0.01893    0.45642    1.000
    O24      O        0.95642    0.23107    0.01893    1.000
    O24      O        0.45642    0.01893    0.73107    1.000
    O24      O        0.04358    0.98107    0.76893    1.000
    O24      O        0.54358    0.26893    0.98107    1.000
    O24      O        0.76893    0.98107    0.04358    1.000
    O24      O        0.26893    0.26893    0.70642    1.000
    O24      O        0.26893    0.54358    0.98107    1.000
    O24      O        0.76893    0.70642    0.76893    1.000
    O24      O        0.98107    0.04358    0.76893    1.000
    O24      O        0.48107    0.70642    0.48107    1.000
    O24      O        0.48107    0.98107    0.20642    1.000
    O24      O        0.98107    0.76893    0.04358    1.000
    O24      O        0.70642    0.76893    0.76893    1.000
    O24      O        0.20642    0.98107    0.48107    1.000
    O24      O        0.29358    0.73107    0.73107    1.000
    O24      O        0.79358    0.01893    0.51893    1.000
    O24      O        0.51893    0.01893    0.79358    1.000
    O24      O        0.01893    0.73107    0.45642    1.000
    O24      O        0.01893    0.45642    0.73107    1.000
    O24      O        0.51893    0.29358    0.51893    1.000
    O24      O        0.01893    0.95642    0.23107    1.000
    O24      O        0.01893    0.23107    0.95642    1.000
    O24      O        0.29358    0.23107    0.23107    1.000
    O24      O        0.70642    0.26893    0.26893    1.000
    O24      O        0.98107    0.26893    0.54358    1.000
    O24      O        0.98107    0.54358    0.26893    1.000
    O24      O        0.48107    0.20642    0.98107    1.000
    O24      O        0.48107    0.48107    0.70642    1.000
    O24      O        0.20642    0.48107    0.98107    1.000
    O24      O        0.79358    0.51893    0.01893    1.000
    O24      O        0.51893    0.51893    0.29358    1.000
    O24      O        0.51893    0.79358    0.01893    1.000
    O25      O        0.59631    0.89829    0.39829    1.000
    O25      O        0.09631    0.85171    0.85171    1.000
    O25      O        0.65369    0.39829    0.35171    1.000
    O25      O        0.89829    0.15369    0.35171    1.000
    O25      O        0.39829    0.59631    0.89829    1.000
    O25      O        0.85171    0.09631    0.85171    1.000
    O25      O        0.35171    0.65369    0.39829    1.000
    O25      O        0.35171    0.89829    0.15369    1.000
    O25      O        0.89829    0.39829    0.59631    1.000
    O25      O        0.85171    0.85171    0.09631    1.000
    O25      O        0.39829    0.35171    0.65369    1.000
    O25      O        0.10171    0.40369    0.60171    1.000
    O25      O        0.64829    0.84631    0.10171    1.000
    O25      O        0.60171    0.34631    0.64829    1.000
    O25      O        0.14829    0.90369    0.14829    1.000
    O25      O        0.90369    0.14829    0.14829    1.000
    O25      O        0.34631    0.64829    0.60171    1.000
    O25      O        0.84631    0.10171    0.64829    1.000
    O25      O        0.40369    0.60171    0.10171    1.000
    O25      O        0.64829    0.60171    0.34631    1.000
    O25      O        0.14829    0.14829    0.90369    1.000
    O25      O        0.60171    0.10171    0.40369    1.000
    O25      O        0.10171    0.64829    0.84631    1.000
    O25      O        0.84631    0.64829    0.10171    1.000
    O25      O        0.40369    0.10171    0.60171    1.000
    O25      O        0.34631    0.60171    0.64829    1.000
    O25      O        0.10171    0.84631    0.64829    1.000
    O25      O        0.60171    0.40369    0.10171    1.000
    O25      O        0.64829    0.34631    0.60171    1.000
    O25      O        0.64829    0.10171    0.84631    1.000
    O25      O        0.10171    0.60171    0.40369    1.000
    O25      O        0.60171    0.64829    0.34631    1.000
    O25      O        0.89829    0.59631    0.39829    1.000
    O25      O        0.35171    0.15369    0.89829    1.000
    O25      O        0.39829    0.65369    0.35171    1.000
    O25      O        0.65369    0.35171    0.39829    1.000
    O25      O        0.15369    0.89829    0.35171    1.000
    O25      O        0.59631    0.39829    0.89829    1.000
    O25      O        0.35171    0.39829    0.65369    1.000
    O25      O        0.39829    0.89829    0.59631    1.000
    O25      O        0.89829    0.35171    0.15369    1.000
    O25      O        0.15369    0.85171    0.39829    1.000
    O25      O        0.09631    0.35171    0.35171    1.000
    O25      O        0.65369    0.89829    0.85171    1.000
    O25      O        0.89829    0.65369    0.85171    1.000
    O25      O        0.39829    0.09631    0.39829    1.000
    O25      O        0.85171    0.59631    0.35171    1.000
    O25      O        0.89829    0.89829    0.09631    1.000
    O25      O        0.85171    0.35171    0.59631    1.000
    O25      O        0.39829    0.85171    0.15369    1.000
    O25      O        0.10171    0.90369    0.10171    1.000
    O25      O        0.60171    0.84631    0.14829    1.000
    O25      O        0.14829    0.40369    0.64829    1.000
    O25      O        0.90369    0.64829    0.64829    1.000
    O25      O        0.34631    0.14829    0.10171    1.000
    O25      O        0.84631    0.60171    0.14829    1.000
    O25      O        0.14829    0.64829    0.40369    1.000
    O25      O        0.60171    0.60171    0.90369    1.000
    O25      O        0.10171    0.14829    0.34631    1.000
    O25      O        0.84631    0.14829    0.60171    1.000
    O25      O        0.34631    0.10171    0.14829    1.000
    O25      O        0.10171    0.34631    0.14829    1.000
    O25      O        0.60171    0.90369    0.60171    1.000
    O25      O        0.10171    0.10171    0.90369    1.000
    O25      O        0.60171    0.14829    0.84631    1.000
    O25      O        0.89829    0.09631    0.89829    1.000
    O25      O        0.39829    0.15369    0.85171    1.000
    O25      O        0.65369    0.85171    0.89829    1.000
    O25      O        0.15369    0.39829    0.85171    1.000
    O25      O        0.39829    0.39829    0.09631    1.000
    O25      O        0.89829    0.85171    0.65369    1.000
    O25      O        0.09631    0.89829    0.89829    1.000
    O25      O        0.59631    0.85171    0.35171    1.000
    O25      O        0.35171    0.09631    0.35171    1.000
    O25      O        0.85171    0.65369    0.89829    1.000
    O25      O        0.85171    0.89829    0.65369    1.000
    O25      O        0.35171    0.85171    0.59631    1.000
    O25      O        0.14829    0.84631    0.60171    1.000
    O25      O        0.64829    0.90369    0.64829    1.000
    O25      O        0.40369    0.14829    0.64829    1.000
    O25      O        0.90369    0.60171    0.60171    1.000
    O25      O        0.14829    0.60171    0.84631    1.000
    O25      O        0.64829    0.14829    0.40369    1.000
    O25      O        0.90369    0.10171    0.10171    1.000
    O25      O        0.14829    0.34631    0.10171    1.000
    O25      O        0.14829    0.10171    0.34631    1.000
    O25      O        0.85171    0.15369    0.39829    1.000
    O25      O        0.09631    0.39829    0.39829    1.000
    O25      O        0.85171    0.39829    0.15369    1.000
    O25      O        0.59631    0.35171    0.85171    1.000
    O25      O        0.35171    0.59631    0.85171    1.000
    O25      O        0.35171    0.35171    0.09631    1.000
    O25      O        0.64829    0.40369    0.14829    1.000
    O25      O        0.40369    0.64829    0.14829    1.000
    O25      O        0.64829    0.64829    0.90369    1.000
    O26      O        0.62500    0.91763    0.12500    1.000
    O26      O        0.12500    0.83237    0.12500    1.000
    O26      O        0.62500    0.41763    0.62500    1.000
    O26      O        0.62500    0.12500    0.33237    1.000
    O26      O        0.12500    0.62500    0.91763    1.000
    O26      O        0.12500    0.12500    0.83237    1.000
    O26      O        0.62500    0.62500    0.41763    1.000
    O26      O        0.33237    0.62500    0.12500    1.000
    O26      O        0.91763    0.12500    0.62500    1.000
    O26      O        0.83237    0.12500    0.12500    1.000
    O26      O        0.41763    0.62500    0.62500    1.000
    O26      O        0.08237    0.37500    0.87500    1.000
    O26      O        0.66763    0.87500    0.37500    1.000
    O26      O        0.58237    0.37500    0.37500    1.000
    O26      O        0.16763    0.87500    0.87500    1.000
    O26      O        0.87500    0.87500    0.16763    1.000
    O26      O        0.37500    0.37500    0.58237    1.000
    O26      O        0.87500    0.37500    0.66763    1.000
    O26      O        0.37500    0.87500    0.08237    1.000
    O26      O        0.37500    0.58237    0.37500    1.000
    O26      O        0.87500    0.16763    0.87500    1.000
    O26      O        0.87500    0.08237    0.37500    1.000
    O26      O        0.37500    0.66763    0.87500    1.000
    O26      O        0.87500    0.66763    0.37500    1.000
    O26      O        0.37500    0.08237    0.87500    1.000
    O26      O        0.37500    0.87500    0.66763    1.000
    O26      O        0.87500    0.37500    0.08237    1.000
    O26      O        0.66763    0.37500    0.87500    1.000
    O26      O        0.08237    0.87500    0.37500    1.000
    O26      O        0.91763    0.62500    0.12500    1.000
    O26      O        0.33237    0.12500    0.62500    1.000
    O26      O        0.12500    0.62500    0.33237    1.000
    O26      O        0.62500    0.12500    0.91763    1.000
    O26      O        0.12500    0.91763    0.62500    1.000
    O26      O        0.62500    0.33237    0.12500    1.000
    O26      O        0.62500    0.62500    0.83237    1.000
    O26      O        0.12500    0.12500    0.41763    1.000
    O26      O        0.83237    0.62500    0.62500    1.000
    O26      O        0.41763    0.12500    0.12500    1.000
    O26      O        0.58237    0.87500    0.87500    1.000
    O26      O        0.16763    0.37500    0.37500    1.000
    O26      O        0.87500    0.58237    0.87500    1.000
    O26      O        0.37500    0.16763    0.37500    1.000
    O26      O        0.37500    0.37500    0.16763    1.000
    O26      O        0.87500    0.87500    0.58237    1.000
    O26      O        0.12500    0.41763    0.12500    1.000
    O26      O        0.62500    0.83237    0.62500    1.000
    O27      O        0.62477    0.87523    0.00000    1.000
    O27      O        0.12477    0.87477    0.25000    1.000
    O27      O        0.62523    0.37523    0.75000    1.000
    O27      O        0.50000    0.12523    0.37477    1.000
    O27      O        0.00000    0.62477    0.87523    1.000
    O27      O        0.25000    0.12477    0.87477    1.000
    O27      O        0.75000    0.62523    0.37523    1.000
    O27      O        0.37477    0.50000    0.12523    1.000
    O27      O        0.87523    0.00000    0.62477    1.000
    O27      O        0.87477    0.25000    0.12477    1.000
    O27      O        0.37523    0.75000    0.62523    1.000
    O27      O        0.12477    0.37523    0.00000    1.000
    O27      O        0.62523    0.87477    0.50000    1.000
    O27      O        0.62477    0.37477    0.25000    1.000
    O27      O        0.12523    0.87523    0.75000    1.000
    O27      O        0.87523    0.75000    0.12523    1.000
    O27      O        0.37477    0.25000    0.62477    1.000
    O27      O        0.87477    0.50000    0.62523    1.000
    O27      O        0.37523    0.00000    0.12477    1.000
    O27      O        0.25000    0.62477    0.37477    1.000
    O27      O        0.75000    0.12523    0.87523    1.000
    O27      O        0.00000    0.12477    0.37523    1.000
    O27      O        0.50000    0.62523    0.87477    1.000
    O27      O        0.87477    0.62523    0.50000    1.000
    O27      O        0.37523    0.12477    0.00000    1.000
    O27      O        0.87523    0.12523    0.75000    1.000
    O27      O        0.37477    0.62477    0.25000    1.000
    O27      O        0.50000    0.87477    0.62523    1.000
    O27      O        0.00000    0.37523    0.12477    1.000
    O27      O        0.75000    0.87523    0.12523    1.000
    O27      O        0.25000    0.37477    0.62477    1.000
    O27      O        0.62523    0.50000    0.87477    1.000
    O27      O        0.12477    0.00000    0.37523    1.000
    O27      O        0.12523    0.75000    0.87523    1.000
    O27      O        0.62477    0.25000    0.37477    1.000
    O27      O        0.87523    0.62477    0.00000    1.000
    O27      O        0.37477    0.12523    0.50000    1.000
    O27      O        0.37523    0.62523    0.75000    1.000
    O27      O        0.87477    0.12477    0.25000    1.000
    O27      O        0.12477    0.25000    0.87477    1.000
    O27      O        0.62523    0.75000    0.37523    1.000
    O27      O        0.12523    0.50000    0.37477    1.000
    O27      O        0.62477    0.00000    0.87523    1.000
    O27      O        0.75000    0.37523    0.62523    1.000
    O27      O        0.25000    0.87477    0.12477    1.000
    O27      O        0.00000    0.87523    0.62477    1.000
    O27      O        0.50000    0.37477    0.12523    1.000
    O27      O        0.12523    0.87477    0.00000    1.000
    O27      O        0.62477    0.37523    0.50000    1.000
    O27      O        0.12477    0.37477    0.75000    1.000
    O27      O        0.62523    0.87523    0.25000    1.000
    O27      O        0.37477    0.00000    0.62523    1.000
    O27      O        0.87523    0.50000    0.12477    1.000
    O27      O        0.87477    0.75000    0.62477    1.000
    O27      O        0.37523    0.25000    0.12523    1.000
    O27      O        0.12477    0.87523    0.50000    1.000
    O27      O        0.62523    0.37477    0.00000    1.000
    O27      O        0.62477    0.87477    0.75000    1.000
    O27      O        0.12523    0.37523    0.25000    1.000
    O27      O        0.87523    0.25000    0.62523    1.000
    O27      O        0.37477    0.75000    0.12477    1.000
    O27      O        0.87477    0.00000    0.12523    1.000
    O27      O        0.37523    0.50000    0.62477    1.000
    O27      O        0.87477    0.12523    0.00000    1.000
    O27      O        0.37523    0.62477    0.50000    1.000
    O27      O        0.87523    0.62523    0.25000    1.000
    O27      O        0.37477    0.12477    0.75000    1.000
    O27      O        0.62523    0.00000    0.37477    1.000
    O27      O        0.12477    0.50000    0.87523    1.000
    O27      O        0.12523    0.25000    0.37523    1.000
    O27      O        0.62477    0.75000    0.87477    1.000
    O27      O        0.87523    0.12477    0.50000    1.000
    O27      O        0.37477    0.62523    0.00000    1.000
    O27      O        0.37523    0.12523    0.25000    1.000
    O27      O        0.87477    0.62477    0.75000    1.000
    O27      O        0.12477    0.75000    0.37477    1.000
    O27      O        0.62523    0.25000    0.87523    1.000
    O27      O        0.12523    0.00000    0.87477    1.000
    O27      O        0.62477    0.50000    0.37523    1.000
    O27      O        0.00000    0.12523    0.87477    1.000
    O27      O        0.50000    0.62477    0.37523    1.000
    O27      O        0.75000    0.12477    0.37477    1.000
    O27      O        0.25000    0.62523    0.87523    1.000
    O27      O        0.75000    0.62477    0.87477    1.000
    O27      O        0.25000    0.12523    0.37523    1.000
    O27      O        0.50000    0.12477    0.87523    1.000
    O27      O        0.00000    0.62523    0.37477    1.000
    O27      O        0.00000    0.87477    0.12523    1.000
    O27      O        0.50000    0.37523    0.62477    1.000
    O27      O        0.25000    0.87523    0.62523    1.000
    O27      O        0.75000    0.37477    0.12477    1.000
    O27      O        0.25000    0.37523    0.12523    1.000
    O27      O        0.75000    0.87477    0.62477    1.000
    O27      O        0.50000    0.87523    0.12477    1.000
    O27      O        0.00000    0.37477    0.62523    1.000
    O28      O        0.65580    0.30250    0.02526    1.000
    O28      O        0.15580    0.44750    0.22474    1.000
    O28      O        0.59420    0.80250    0.72474    1.000
    O28      O        0.52526    0.09420    0.94750    1.000
    O28      O        0.02526    0.65580    0.30250    1.000
    O28      O        0.22474    0.15580    0.44750    1.000
    O28      O        0.72474    0.59420    0.80250    1.000
    O28      O        0.94750    0.52526    0.09420    1.000
    O28      O        0.30250    0.02526    0.65580    1.000
    O28      O        0.44750    0.22474    0.15580    1.000
    O28      O        0.80250    0.72474    0.59420    1.000
    O28      O        0.69750    0.34420    0.97474    1.000
    O28      O        0.05250    0.90580    0.47474    1.000
    O28      O        0.19750    0.40580    0.27526    1.000
    O28      O        0.55250    0.84420    0.77526    1.000
    O28      O        0.84420    0.77526    0.55250    1.000
    O28      O        0.40580    0.27526    0.19750    1.000
    O28      O        0.90580    0.47474    0.05250    1.000
    O28      O        0.34420    0.97474    0.69750    1.000
    O28      O        0.27526    0.19750    0.40580    1.000
    O28      O        0.77526    0.55250    0.84420    1.000
    O28      O        0.97474    0.69750    0.34420    1.000
    O28      O        0.47474    0.05250    0.90580    1.000
    O28      O        0.90580    0.05250    0.47474    1.000
    O28      O        0.34420    0.69750    0.97474    1.000
    O28      O        0.84420    0.55250    0.77526    1.000
    O28      O        0.40580    0.19750    0.27526    1.000
    O28      O        0.47474    0.90580    0.05250    1.000
    O28      O        0.97474    0.34420    0.69750    1.000
    O28      O        0.77526    0.84420    0.55250    1.000
    O28      O        0.27526    0.40580    0.19750    1.000
    O28      O        0.05250    0.47474    0.90580    1.000
    O28      O        0.69750    0.97474    0.34420    1.000
    O28      O        0.55250    0.77526    0.84420    1.000
    O28      O        0.19750    0.27526    0.40580    1.000
    O28      O        0.30250    0.65580    0.02526    1.000
    O28      O        0.94750    0.09420    0.52526    1.000
    O28      O        0.80250    0.59420    0.72474    1.000
    O28      O        0.44750    0.15580    0.22474    1.000
    O28      O        0.15580    0.22474    0.44750    1.000
    O28      O        0.59420    0.72474    0.80250    1.000
    O28      O        0.09420    0.52526    0.94750    1.000
    O28      O        0.65580    0.02526    0.30250    1.000
    O28      O        0.72474    0.80250    0.59420    1.000
    O28      O        0.22474    0.44750    0.15580    1.000
    O28      O        0.02526    0.30250    0.65580    1.000
    O28      O        0.52526    0.94750    0.09420    1.000
    O28      O        0.09420    0.44750    0.02526    1.000
    O28      O        0.65580    0.80250    0.52526    1.000
    O28      O        0.15580    0.94750    0.72474    1.000
    O28      O        0.59420    0.30250    0.22474    1.000
    O28      O        0.52526    0.59420    0.44750    1.000
    O28      O        0.02526    0.15580    0.80250    1.000
    O28      O        0.22474    0.65580    0.94750    1.000
    O28      O        0.72474    0.09420    0.30250    1.000
    O28      O        0.94750    0.02526    0.59420    1.000
    O28      O        0.30250    0.52526    0.15580    1.000
    O28      O        0.44750    0.72474    0.65580    1.000
    O28      O        0.80250    0.22474    0.09420    1.000
    O28      O        0.69750    0.84420    0.47474    1.000
    O28      O        0.05250    0.40580    0.97474    1.000
    O28      O        0.19750    0.90580    0.77526    1.000
    O28      O        0.55250    0.34420    0.27526    1.000
    O28      O        0.84420    0.27526    0.05250    1.000
    O28      O        0.40580    0.77526    0.69750    1.000
    O28      O        0.90580    0.97474    0.55250    1.000
    O28      O        0.34420    0.47474    0.19750    1.000
    O28      O        0.27526    0.69750    0.90580    1.000
    O28      O        0.77526    0.05250    0.34420    1.000
    O28      O        0.97474    0.19750    0.84420    1.000
    O28      O        0.47474    0.55250    0.40580    1.000
    O28      O        0.90580    0.55250    0.97474    1.000
    O28      O        0.34420    0.19750    0.47474    1.000
    O28      O        0.84420    0.05250    0.27526    1.000
    O28      O        0.40580    0.69750    0.77526    1.000
    O28      O        0.47474    0.40580    0.55250    1.000
    O28      O        0.97474    0.84420    0.19750    1.000
    O28      O        0.77526    0.34420    0.05250    1.000
    O28      O        0.27526    0.90580    0.69750    1.000
    O28      O        0.05250    0.97474    0.40580    1.000
    O28      O        0.69750    0.47474    0.84420    1.000
    O28      O        0.55250    0.27526    0.34420    1.000
    O28      O        0.19750    0.77526    0.90580    1.000
    O28      O        0.30250    0.15580    0.52526    1.000
    O28      O        0.94750    0.59420    0.02526    1.000
    O28      O        0.80250    0.09420    0.22474    1.000
    O28      O        0.44750    0.65580    0.72474    1.000
    O28      O        0.15580    0.72474    0.94750    1.000
    O28      O        0.59420    0.22474    0.30250    1.000
    O28      O        0.09420    0.02526    0.44750    1.000
    O28      O        0.65580    0.52526    0.80250    1.000
    O28      O        0.72474    0.30250    0.09420    1.000
    O28      O        0.22474    0.94750    0.65580    1.000
    O28      O        0.02526    0.80250    0.15580    1.000
    O28      O        0.52526    0.44750    0.59420    1.000
    O28      O        0.59420    0.94750    0.02526    1.000
    O28      O        0.15580    0.30250    0.52526    1.000
    O28      O        0.65580    0.44750    0.72474    1.000
    O28      O        0.09420    0.80250    0.22474    1.000
    O28      O        0.02526    0.09420    0.44750    1.000
    O28      O        0.52526    0.65580    0.80250    1.000
    O28      O        0.72474    0.15580    0.94750    1.000
    O28      O        0.22474    0.59420    0.30250    1.000
    O28      O        0.44750    0.52526    0.59420    1.000
    O28      O        0.80250    0.02526    0.15580    1.000
    O28      O        0.94750    0.22474    0.65580    1.000
    O28      O        0.30250    0.72474    0.09420    1.000
    O28      O        0.19750    0.34420    0.47474    1.000
    O28      O        0.55250    0.90580    0.97474    1.000
    O28      O        0.69750    0.40580    0.77526    1.000
    O28      O        0.05250    0.84420    0.27526    1.000
    O28      O        0.34420    0.77526    0.05250    1.000
    O28      O        0.90580    0.27526    0.69750    1.000
    O28      O        0.40580    0.47474    0.55250    1.000
    O28      O        0.84420    0.97474    0.19750    1.000
    O28      O        0.77526    0.19750    0.90580    1.000
    O28      O        0.27526    0.55250    0.34420    1.000
    O28      O        0.47474    0.69750    0.84420    1.000
    O28      O        0.97474    0.05250    0.40580    1.000
    O28      O        0.40580    0.05250    0.97474    1.000
    O28      O        0.84420    0.69750    0.47474    1.000
    O28      O        0.34420    0.55250    0.27526    1.000
    O28      O        0.90580    0.19750    0.77526    1.000
    O28      O        0.97474    0.90580    0.55250    1.000
    O28      O        0.47474    0.34420    0.19750    1.000
    O28      O        0.27526    0.84420    0.05250    1.000
    O28      O        0.77526    0.40580    0.69750    1.000
    O28      O        0.55250    0.47474    0.40580    1.000
    O28      O        0.19750    0.97474    0.84420    1.000
    O28      O        0.05250    0.77526    0.34420    1.000
    O28      O        0.69750    0.27526    0.90580    1.000
    O28      O        0.80250    0.65580    0.52526    1.000
    O28      O        0.44750    0.09420    0.02526    1.000
    O28      O        0.30250    0.59420    0.22474    1.000
    O28      O        0.94750    0.15580    0.72474    1.000
    O28      O        0.65580    0.22474    0.94750    1.000
    O28      O        0.09420    0.72474    0.30250    1.000
    O28      O        0.59420    0.52526    0.44750    1.000
    O28      O        0.15580    0.02526    0.80250    1.000
    O28      O        0.22474    0.80250    0.09420    1.000
    O28      O        0.72474    0.44750    0.65580    1.000
    O28      O        0.52526    0.30250    0.15580    1.000
    O28      O        0.02526    0.94750    0.59420    1.000
    O28      O        0.59420    0.44750    0.52526    1.000
    O28      O        0.15580    0.80250    0.02526    1.000
    O28      O        0.65580    0.94750    0.22474    1.000
    O28      O        0.09420    0.30250    0.72474    1.000
    O28      O        0.02526    0.59420    0.94750    1.000
    O28      O        0.52526    0.15580    0.30250    1.000
    O28      O        0.72474    0.65580    0.44750    1.000
    O28      O        0.22474    0.09420    0.80250    1.000
    O28      O        0.44750    0.02526    0.09420    1.000
    O28      O        0.80250    0.52526    0.65580    1.000
    O28      O        0.94750    0.72474    0.15580    1.000
    O28      O        0.30250    0.22474    0.59420    1.000
    O28      O        0.19750    0.84420    0.97474    1.000
    O28      O        0.55250    0.40580    0.47474    1.000
    O28      O        0.69750    0.90580    0.27526    1.000
    O28      O        0.05250    0.34420    0.77526    1.000
    O28      O        0.34420    0.27526    0.55250    1.000
    O28      O        0.90580    0.77526    0.19750    1.000
    O28      O        0.40580    0.97474    0.05250    1.000
    O28      O        0.84420    0.47474    0.69750    1.000
    O28      O        0.77526    0.69750    0.40580    1.000
    O28      O        0.27526    0.05250    0.84420    1.000
    O28      O        0.47474    0.19750    0.34420    1.000
    O28      O        0.97474    0.55250    0.90580    1.000
    O28      O        0.40580    0.55250    0.47474    1.000
    O28      O        0.84420    0.19750    0.97474    1.000
    O28      O        0.34420    0.05250    0.77526    1.000
    O28      O        0.90580    0.69750    0.27526    1.000
    O28      O        0.97474    0.40580    0.05250    1.000
    O28      O        0.47474    0.84420    0.69750    1.000
    O28      O        0.27526    0.34420    0.55250    1.000
    O28      O        0.77526    0.90580    0.19750    1.000
    O28      O        0.55250    0.97474    0.90580    1.000
    O28      O        0.19750    0.47474    0.34420    1.000
    O28      O        0.05250    0.27526    0.84420    1.000
    O28      O        0.69750    0.77526    0.40580    1.000
    O28      O        0.80250    0.15580    0.02526    1.000
    O28      O        0.44750    0.59420    0.52526    1.000
    O28      O        0.30250    0.09420    0.72474    1.000
    O28      O        0.94750    0.65580    0.22474    1.000
    O28      O        0.65580    0.72474    0.44750    1.000
    O28      O        0.09420    0.22474    0.80250    1.000
    O28      O        0.59420    0.02526    0.94750    1.000
    O28      O        0.15580    0.52526    0.30250    1.000
    O28      O        0.22474    0.30250    0.59420    1.000
    O28      O        0.72474    0.94750    0.15580    1.000
    O28      O        0.52526    0.80250    0.65580    1.000
    O28      O        0.02526    0.44750    0.09420    1.000
    C1       C        0.87050    0.35929    0.43066    1.000
    C1       C        0.37050    0.39071    0.81934    1.000
    C1       C        0.37950    0.85929    0.31934    1.000
    C1       C        0.93066    0.87950    0.89071    1.000
    C1       C        0.43066    0.87050    0.35929    1.000
    C1       C        0.81934    0.37050    0.39071    1.000
    C1       C        0.31934    0.37950    0.85929    1.000
    C1       C        0.89071    0.93066    0.87950    1.000
    C1       C        0.35929    0.43066    0.87050    1.000
    C1       C        0.39071    0.81934    0.37050    1.000
    C1       C        0.85929    0.31934    0.37950    1.000
    C1       C        0.64071    0.12950    0.56934    1.000
    C1       C        0.10929    0.12050    0.06934    1.000
    C1       C        0.14071    0.62050    0.68066    1.000
    C1       C        0.60929    0.62950    0.18066    1.000
    C1       C        0.62950    0.18066    0.60929    1.000
    C1       C        0.62050    0.68066    0.14071    1.000
    C1       C        0.12050    0.06934    0.10929    1.000
    C1       C        0.12950    0.56934    0.64071    1.000
    C1       C        0.68066    0.14071    0.62050    1.000
    C1       C        0.18066    0.60929    0.62950    1.000
    C1       C        0.56934    0.64071    0.12950    1.000
    C1       C        0.06934    0.10929    0.12050    1.000
    C1       C        0.12050    0.10929    0.06934    1.000
    C1       C        0.12950    0.64071    0.56934    1.000
    C1       C        0.62950    0.60929    0.18066    1.000
    C1       C        0.62050    0.14071    0.68066    1.000
    C1       C        0.06934    0.12050    0.10929    1.000
    C1       C        0.56934    0.12950    0.64071    1.000
    C1       C        0.18066    0.62950    0.60929    1.000
    C1       C        0.68066    0.62050    0.14071    1.000
    C1       C        0.10929    0.06934    0.12050    1.000
    C1       C        0.64071    0.56934    0.12950    1.000
    C1       C        0.60929    0.18066    0.62950    1.000
    C1       C        0.14071    0.68066    0.62050    1.000
    C1       C        0.35929    0.87050    0.43066    1.000
    C1       C        0.89071    0.87950    0.93066    1.000
    C1       C        0.85929    0.37950    0.31934    1.000
    C1       C        0.39071    0.37050    0.81934    1.000
    C1       C        0.37050    0.81934    0.39071    1.000
    C1       C        0.37950    0.31934    0.85929    1.000
    C1       C        0.87950    0.93066    0.89071    1.000
    C1       C        0.87050    0.43066    0.35929    1.000
    C1       C        0.31934    0.85929    0.37950    1.000
    C1       C        0.81934    0.39071    0.37050    1.000
    C1       C        0.43066    0.35929    0.87050    1.000
    C1       C        0.93066    0.89071    0.87950    1.000
    C1       C        0.87950    0.39071    0.43066    1.000
    C1       C        0.87050    0.85929    0.93066    1.000
    C1       C        0.37050    0.89071    0.31934    1.000
    C1       C        0.37950    0.35929    0.81934    1.000
    C1       C        0.93066    0.37950    0.39071    1.000
    C1       C        0.43066    0.37050    0.85929    1.000
    C1       C        0.81934    0.87050    0.89071    1.000
    C1       C        0.31934    0.87950    0.35929    1.000
    C1       C        0.89071    0.43066    0.37950    1.000
    C1       C        0.35929    0.93066    0.37050    1.000
    C1       C        0.39071    0.31934    0.87050    1.000
    C1       C        0.85929    0.81934    0.87950    1.000
    C1       C        0.64071    0.62950    0.06934    1.000
    C1       C        0.10929    0.62050    0.56934    1.000
    C1       C        0.14071    0.12050    0.18066    1.000
    C1       C        0.60929    0.12950    0.68066    1.000
    C1       C        0.62950    0.68066    0.10929    1.000
    C1       C        0.62050    0.18066    0.64071    1.000
    C1       C        0.12050    0.56934    0.60929    1.000
    C1       C        0.12950    0.06934    0.14071    1.000
    C1       C        0.68066    0.64071    0.12050    1.000
    C1       C        0.18066    0.10929    0.12950    1.000
    C1       C        0.56934    0.14071    0.62950    1.000
    C1       C        0.06934    0.60929    0.62050    1.000
    C1       C        0.12050    0.60929    0.56934    1.000
    C1       C        0.12950    0.14071    0.06934    1.000
    C1       C        0.62950    0.10929    0.68066    1.000
    C1       C        0.62050    0.64071    0.18066    1.000
    C1       C        0.06934    0.62050    0.60929    1.000
    C1       C        0.56934    0.62950    0.14071    1.000
    C1       C        0.18066    0.12950    0.10929    1.000
    C1       C        0.68066    0.12050    0.64071    1.000
    C1       C        0.10929    0.56934    0.62050    1.000
    C1       C        0.64071    0.06934    0.62950    1.000
    C1       C        0.60929    0.68066    0.12950    1.000
    C1       C        0.14071    0.18066    0.12050    1.000
    C1       C        0.35929    0.37050    0.93066    1.000
    C1       C        0.89071    0.37950    0.43066    1.000
    C1       C        0.85929    0.87950    0.81934    1.000
    C1       C        0.39071    0.87050    0.31934    1.000
    C1       C        0.37050    0.31934    0.89071    1.000
    C1       C        0.37950    0.81934    0.35929    1.000
    C1       C        0.87950    0.43066    0.39071    1.000
    C1       C        0.87050    0.93066    0.85929    1.000
    C1       C        0.31934    0.35929    0.87950    1.000
    C1       C        0.81934    0.89071    0.87050    1.000
    C1       C        0.43066    0.85929    0.37050    1.000
    C1       C        0.93066    0.39071    0.37950    1.000
    C1       C        0.37950    0.89071    0.43066    1.000
    C1       C        0.37050    0.35929    0.93066    1.000
    C1       C        0.87050    0.39071    0.31934    1.000
    C1       C        0.87950    0.85929    0.81934    1.000
    C1       C        0.43066    0.87950    0.39071    1.000
    C1       C        0.93066    0.87050    0.85929    1.000
    C1       C        0.31934    0.37050    0.89071    1.000
    C1       C        0.81934    0.37950    0.35929    1.000
    C1       C        0.39071    0.93066    0.37950    1.000
    C1       C        0.85929    0.43066    0.37050    1.000
    C1       C        0.89071    0.81934    0.87050    1.000
    C1       C        0.35929    0.31934    0.87950    1.000
    C1       C        0.14071    0.12950    0.06934    1.000
    C1       C        0.60929    0.12050    0.56934    1.000
    C1       C        0.64071    0.62050    0.18066    1.000
    C1       C        0.10929    0.62950    0.68066    1.000
    C1       C        0.12950    0.18066    0.10929    1.000
    C1       C        0.12050    0.68066    0.64071    1.000
    C1       C        0.62050    0.06934    0.60929    1.000
    C1       C        0.62950    0.56934    0.14071    1.000
    C1       C        0.18066    0.14071    0.12050    1.000
    C1       C        0.68066    0.60929    0.12950    1.000
    C1       C        0.06934    0.64071    0.62950    1.000
    C1       C        0.56934    0.10929    0.62050    1.000
    C1       C        0.62050    0.10929    0.56934    1.000
    C1       C        0.62950    0.64071    0.06934    1.000
    C1       C        0.12950    0.60929    0.68066    1.000
    C1       C        0.12050    0.14071    0.18066    1.000
    C1       C        0.56934    0.12050    0.60929    1.000
    C1       C        0.06934    0.12950    0.14071    1.000
    C1       C        0.68066    0.62950    0.10929    1.000
    C1       C        0.18066    0.62050    0.64071    1.000
    C1       C        0.60929    0.06934    0.62050    1.000
    C1       C        0.14071    0.56934    0.62950    1.000
    C1       C        0.10929    0.18066    0.12950    1.000
    C1       C        0.64071    0.68066    0.12050    1.000
    C1       C        0.85929    0.87050    0.93066    1.000
    C1       C        0.39071    0.87950    0.43066    1.000
    C1       C        0.35929    0.37950    0.81934    1.000
    C1       C        0.89071    0.37050    0.31934    1.000
    C1       C        0.87050    0.81934    0.89071    1.000
    C1       C        0.87950    0.31934    0.35929    1.000
    C1       C        0.37950    0.93066    0.39071    1.000
    C1       C        0.37050    0.43066    0.85929    1.000
    C1       C        0.81934    0.85929    0.87950    1.000
    C1       C        0.31934    0.39071    0.87050    1.000
    C1       C        0.93066    0.35929    0.37050    1.000
    C1       C        0.43066    0.89071    0.37950    1.000
    C1       C        0.37950    0.39071    0.93066    1.000
    C1       C        0.37050    0.85929    0.43066    1.000
    C1       C        0.87050    0.89071    0.81934    1.000
    C1       C        0.87950    0.35929    0.31934    1.000
    C1       C        0.43066    0.37950    0.89071    1.000
    C1       C        0.93066    0.37050    0.35929    1.000
    C1       C        0.31934    0.87050    0.39071    1.000
    C1       C        0.81934    0.87950    0.85929    1.000
    C1       C        0.39071    0.43066    0.87950    1.000
    C1       C        0.85929    0.93066    0.87050    1.000
    C1       C        0.89071    0.31934    0.37050    1.000
    C1       C        0.35929    0.81934    0.37950    1.000
    C1       C        0.14071    0.62950    0.56934    1.000
    C1       C        0.60929    0.62050    0.06934    1.000
    C1       C        0.64071    0.12050    0.68066    1.000
    C1       C        0.10929    0.12950    0.18066    1.000
    C1       C        0.12950    0.68066    0.60929    1.000
    C1       C        0.12050    0.18066    0.14071    1.000
    C1       C        0.62050    0.56934    0.10929    1.000
    C1       C        0.62950    0.06934    0.64071    1.000
    C1       C        0.18066    0.64071    0.62050    1.000
    C1       C        0.68066    0.10929    0.62950    1.000
    C1       C        0.06934    0.14071    0.12950    1.000
    C1       C        0.56934    0.60929    0.12050    1.000
    C1       C        0.62050    0.60929    0.06934    1.000
    C1       C        0.62950    0.14071    0.56934    1.000
    C1       C        0.12950    0.10929    0.18066    1.000
    C1       C        0.12050    0.64071    0.68066    1.000
    C1       C        0.56934    0.62050    0.10929    1.000
    C1       C        0.06934    0.62950    0.64071    1.000
    C1       C        0.68066    0.12950    0.60929    1.000
    C1       C        0.18066    0.12050    0.14071    1.000
    C1       C        0.60929    0.56934    0.12050    1.000
    C1       C        0.14071    0.06934    0.12950    1.000
    C1       C        0.10929    0.68066    0.62950    1.000
    C1       C        0.64071    0.18066    0.62050    1.000
    C1       C        0.85929    0.37050    0.43066    1.000
    C1       C        0.39071    0.37950    0.93066    1.000
    C1       C        0.35929    0.87950    0.31934    1.000
    C1       C        0.89071    0.87050    0.81934    1.000
    C1       C        0.87050    0.31934    0.39071    1.000
    C1       C        0.87950    0.81934    0.85929    1.000
    C1       C        0.37950    0.43066    0.89071    1.000
    C1       C        0.37050    0.93066    0.35929    1.000
    C1       C        0.81934    0.35929    0.37950    1.000
    C1       C        0.31934    0.89071    0.37050    1.000
    C1       C        0.93066    0.85929    0.87050    1.000
    C1       C        0.43066    0.39071    0.87950    1.000
    C2       C        0.60342    0.14659    0.56614    1.000
    C2       C        0.10342    0.60341    0.68386    1.000
    C2       C        0.64658    0.64659    0.18386    1.000
    C2       C        0.06614    0.14658    0.10341    1.000
    C2       C        0.56614    0.60342    0.14659    1.000
    C2       C        0.68386    0.10342    0.60341    1.000
    C2       C        0.18386    0.64658    0.64659    1.000
    C2       C        0.10341    0.06614    0.14658    1.000
    C2       C        0.14659    0.56614    0.60342    1.000
    C2       C        0.60341    0.68386    0.10342    1.000
    C2       C        0.64659    0.18386    0.64658    1.000
    C2       C        0.85341    0.39658    0.43386    1.000
    C2       C        0.89659    0.85342    0.93386    1.000
    C2       C        0.35341    0.35342    0.81614    1.000
    C2       C        0.39659    0.89658    0.31614    1.000
    C2       C        0.89658    0.31614    0.39659    1.000
    C2       C        0.35342    0.81614    0.35341    1.000
    C2       C        0.85342    0.93386    0.89659    1.000
    C2       C        0.39658    0.43386    0.85341    1.000
    C2       C        0.81614    0.35341    0.35342    1.000
    C2       C        0.31614    0.39659    0.89658    1.000
    C2       C        0.43386    0.85341    0.39658    1.000
    C2       C        0.93386    0.89659    0.85342    1.000
    C2       C        0.85342    0.89659    0.93386    1.000
    C2       C        0.39658    0.85341    0.43386    1.000
    C2       C        0.89658    0.39659    0.31614    1.000
    C2       C        0.93386    0.85342    0.89659    1.000
    C2       C        0.43386    0.39658    0.85341    1.000
    C2       C        0.31614    0.89658    0.39659    1.000
    C2       C        0.89659    0.93386    0.85342    1.000
    C2       C        0.85341    0.43386    0.39658    1.000
    C2       C        0.39659    0.31614    0.89658    1.000
    C2       C        0.14659    0.60342    0.56614    1.000
    C2       C        0.10341    0.14658    0.06614    1.000
    C2       C        0.60341    0.10342    0.68386    1.000
    C2       C        0.10342    0.68386    0.60341    1.000
    C2       C        0.14658    0.06614    0.10341    1.000
    C2       C        0.60342    0.56614    0.14659    1.000
    C2       C        0.68386    0.60341    0.10342    1.000
    C2       C        0.56614    0.14659    0.60342    1.000
    C2       C        0.06614    0.10341    0.14658    1.000
    C2       C        0.60342    0.64659    0.06614    1.000
    C2       C        0.10342    0.10341    0.18386    1.000
    C2       C        0.64658    0.14659    0.68386    1.000
    C2       C        0.06614    0.64658    0.60341    1.000
    C2       C        0.56614    0.10342    0.64659    1.000
    C2       C        0.18386    0.14658    0.14659    1.000
    C2       C        0.10341    0.56614    0.64658    1.000
    C2       C        0.60341    0.18386    0.60342    1.000
    C2       C        0.64659    0.68386    0.14658    1.000
    C2       C        0.89659    0.35342    0.43386    1.000
    C2       C        0.35341    0.85342    0.31614    1.000
    C2       C        0.39659    0.39658    0.81614    1.000
    C2       C        0.89658    0.81614    0.89659    1.000
    C2       C        0.35342    0.31614    0.85341    1.000
    C2       C        0.39658    0.93386    0.35341    1.000
    C2       C        0.81614    0.85341    0.85342    1.000
    C2       C        0.43386    0.35341    0.89658    1.000
    C2       C        0.93386    0.39659    0.35342    1.000
    C2       C        0.39658    0.35341    0.93386    1.000
    C2       C        0.89658    0.89659    0.81614    1.000
    C2       C        0.93386    0.35342    0.39659    1.000
    C2       C        0.43386    0.89658    0.35341    1.000
    C2       C        0.89659    0.43386    0.35342    1.000
    C2       C        0.39659    0.81614    0.39658    1.000
    C2       C        0.10341    0.64658    0.56614    1.000
    C2       C        0.60341    0.60342    0.18386    1.000
    C2       C        0.10342    0.18386    0.10341    1.000
    C2       C        0.60342    0.06614    0.64659    1.000
    C2       C        0.56614    0.64659    0.10342    1.000
    C2       C        0.06614    0.60341    0.64658    1.000
    C2       C        0.64658    0.10341    0.56614    1.000
    C2       C        0.14658    0.64659    0.68386    1.000
    C2       C        0.18386    0.10342    0.10341    1.000
    C2       C        0.68386    0.64658    0.14659    1.000
    C2       C        0.64659    0.56614    0.10342    1.000
    C2       C        0.14659    0.18386    0.14658    1.000
    C2       C        0.35341    0.39658    0.93386    1.000
    C2       C        0.85341    0.35342    0.31614    1.000
    C2       C        0.85342    0.81614    0.85341    1.000
    C2       C        0.35342    0.93386    0.39659    1.000
    C2       C        0.31614    0.35341    0.85342    1.000
    C2       C        0.81614    0.39659    0.39658    1.000
    C2       C        0.35342    0.89659    0.43386    1.000
    C2       C        0.81614    0.89658    0.89659    1.000
    C2       C        0.35341    0.43386    0.89658    1.000
    C2       C        0.64659    0.60342    0.06614    1.000
    C2       C        0.64658    0.06614    0.60341    1.000
    C2       C        0.18386    0.60341    0.60342    1.000
    C2       C        0.14658    0.14659    0.18386    1.000
    C2       C        0.68386    0.14658    0.64659    1.000
    C2       C        0.14659    0.68386    0.64658    1.000
    C2       C        0.85341    0.85342    0.81614    1.000
    C2       C        0.85342    0.31614    0.35341    1.000
    C2       C        0.31614    0.85341    0.35342    1.000
    C3       C        0.61423    0.13577    0.56680    1.000
    C3       C        0.11423    0.61423    0.68320    1.000
    C3       C        0.63577    0.63577    0.18320    1.000
    C3       C        0.06680    0.13577    0.11423    1.000
    C3       C        0.56680    0.61423    0.13577    1.000
    C3       C        0.68320    0.11423    0.61423    1.000
    C3       C        0.18320    0.63577    0.63577    1.000
    C3       C        0.11423    0.06680    0.13577    1.000
    C3       C        0.13577    0.56680    0.61423    1.000
    C3       C        0.61423    0.68320    0.11423    1.000
    C3       C        0.63577    0.18320    0.63577    1.000
    C3       C        0.86423    0.38577    0.43320    1.000
    C3       C        0.88577    0.86423    0.93320    1.000
    C3       C        0.36423    0.36423    0.81680    1.000
    C3       C        0.38577    0.88577    0.31680    1.000
    C3       C        0.88577    0.31680    0.38577    1.000
    C3       C        0.36423    0.81680    0.36423    1.000
    C3       C        0.86423    0.93320    0.88577    1.000
    C3       C        0.38577    0.43320    0.86423    1.000
    C3       C        0.81680    0.36423    0.36423    1.000
    C3       C        0.31680    0.38577    0.88577    1.000
    C3       C        0.43320    0.86423    0.38577    1.000
    C3       C        0.93320    0.88577    0.86423    1.000
    C3       C        0.86423    0.88577    0.93320    1.000
    C3       C        0.38577    0.86423    0.43320    1.000
    C3       C        0.88577    0.38577    0.31680    1.000
    C3       C        0.93320    0.86423    0.88577    1.000
    C3       C        0.43320    0.38577    0.86423    1.000
    C3       C        0.31680    0.88577    0.38577    1.000
    C3       C        0.88577    0.93320    0.86423    1.000
    C3       C        0.86423    0.43320    0.38577    1.000
    C3       C        0.38577    0.31680    0.88577    1.000
    C3       C        0.13577    0.61423    0.56680    1.000
    C3       C        0.11423    0.13577    0.06680    1.000
    C3       C        0.61423    0.11423    0.68320    1.000
    C3       C        0.11423    0.68320    0.61423    1.000
    C3       C        0.13577    0.06680    0.11423    1.000
    C3       C        0.61423    0.56680    0.13577    1.000
    C3       C        0.68320    0.61423    0.11423    1.000
    C3       C        0.56680    0.13577    0.61423    1.000
    C3       C        0.06680    0.11423    0.13577    1.000
    C3       C        0.61423    0.63577    0.06680    1.000
    C3       C        0.11423    0.11423    0.18320    1.000
    C3       C        0.63577    0.13577    0.68320    1.000
    C3       C        0.06680    0.63577    0.61423    1.000
    C3       C        0.56680    0.11423    0.63577    1.000
    C3       C        0.18320    0.13577    0.13577    1.000
    C3       C        0.11423    0.56680    0.63577    1.000
    C3       C        0.61423    0.18320    0.61423    1.000
    C3       C        0.63577    0.68320    0.13577    1.000
    C3       C        0.88577    0.36423    0.43320    1.000
    C3       C        0.36423    0.86423    0.31680    1.000
    C3       C        0.38577    0.38577    0.81680    1.000
    C3       C        0.88577    0.81680    0.88577    1.000
    C3       C        0.36423    0.31680    0.86423    1.000
    C3       C        0.38577    0.93320    0.36423    1.000
    C3       C        0.81680    0.86423    0.86423    1.000
    C3       C        0.43320    0.36423    0.88577    1.000
    C3       C        0.93320    0.38577    0.36423    1.000
    C3       C        0.38577    0.36423    0.93320    1.000
    C3       C        0.88577    0.88577    0.81680    1.000
    C3       C        0.93320    0.36423    0.38577    1.000
    C3       C        0.43320    0.88577    0.36423    1.000
    C3       C        0.88577    0.43320    0.36423    1.000
    C3       C        0.38577    0.81680    0.38577    1.000
    C3       C        0.11423    0.63577    0.56680    1.000
    C3       C        0.61423    0.61423    0.18320    1.000
    C3       C        0.11423    0.18320    0.11423    1.000
    C3       C        0.61423    0.06680    0.63577    1.000
    C3       C        0.56680    0.63577    0.11423    1.000
    C3       C        0.06680    0.61423    0.63577    1.000
    C3       C        0.63577    0.11423    0.56680    1.000
    C3       C        0.13577    0.63577    0.68320    1.000
    C3       C        0.18320    0.11423    0.11423    1.000
    C3       C        0.68320    0.63577    0.13577    1.000
    C3       C        0.63577    0.56680    0.11423    1.000
    C3       C        0.13577    0.18320    0.13577    1.000
    C3       C        0.36423    0.38577    0.93320    1.000
    C3       C        0.86423    0.36423    0.31680    1.000
    C3       C        0.86423    0.81680    0.86423    1.000
    C3       C        0.36423    0.93320    0.38577    1.000
    C3       C        0.31680    0.36423    0.86423    1.000
    C3       C        0.81680    0.38577    0.38577    1.000
    C3       C        0.36423    0.88577    0.43320    1.000
    C3       C        0.81680    0.88577    0.88577    1.000
    C3       C        0.36423    0.43320    0.88577    1.000
    C3       C        0.63577    0.61423    0.06680    1.000
    C3       C        0.63577    0.06680    0.61423    1.000
    C3       C        0.18320    0.61423    0.61423    1.000
    C3       C        0.13577    0.13577    0.18320    1.000
    C3       C        0.68320    0.13577    0.63577    1.000
    C3       C        0.13577    0.68320    0.63577    1.000
    C3       C        0.86423    0.86423    0.81680    1.000
    C3       C        0.86423    0.31680    0.36423    1.000
    C3       C        0.31680    0.86423    0.36423    1.000
    C4       C        0.41837    0.93800    0.25507    1.000
    C4       C        0.91837    0.81200    0.99493    1.000
    C4       C        0.83163    0.43800    0.49493    1.000
    C4       C        0.75507    0.33163    0.31200    1.000
    C4       C        0.25507    0.41837    0.93800    1.000
    C4       C        0.99493    0.91837    0.81200    1.000
    C4       C        0.49493    0.83163    0.43800    1.000
    C4       C        0.31200    0.75507    0.33163    1.000
    C4       C        0.93800    0.25507    0.41837    1.000
    C4       C        0.81200    0.99493    0.91837    1.000
    C4       C        0.43800    0.49493    0.83163    1.000
    C4       C        0.06200    0.58163    0.74493    1.000
    C4       C        0.68800    0.66837    0.24493    1.000
    C4       C        0.56200    0.16837    0.50507    1.000
    C4       C        0.18800    0.08163    0.00507    1.000
    C4       C        0.08163    0.00507    0.18800    1.000
    C4       C        0.16837    0.50507    0.56200    1.000
    C4       C        0.66837    0.24493    0.68800    1.000
    C4       C        0.58163    0.74493    0.06200    1.000
    C4       C        0.50507    0.56200    0.16837    1.000
    C4       C        0.00507    0.18800    0.08163    1.000
    C4       C        0.74493    0.06200    0.58163    1.000
    C4       C        0.24493    0.68800    0.66837    1.000
    C4       C        0.66837    0.68800    0.24493    1.000
    C4       C        0.58163    0.06200    0.74493    1.000
    C4       C        0.08163    0.18800    0.00507    1.000
    C4       C        0.16837    0.56200    0.50507    1.000
    C4       C        0.24493    0.66837    0.68800    1.000
    C4       C        0.74493    0.58163    0.06200    1.000
    C4       C        0.00507    0.08163    0.18800    1.000
    C4       C        0.50507    0.16837    0.56200    1.000
    C4       C        0.68800    0.24493    0.66837    1.000
    C4       C        0.06200    0.74493    0.58163    1.000
    C4       C        0.18800    0.00507    0.08163    1.000
    C4       C        0.56200    0.50507    0.16837    1.000
    C4       C        0.93800    0.41837    0.25507    1.000
    C4       C        0.31200    0.33163    0.75507    1.000
    C4       C        0.43800    0.83163    0.49493    1.000
    C4       C        0.81200    0.91837    0.99493    1.000
    C4       C        0.91837    0.99493    0.81200    1.000
    C4       C        0.83163    0.49493    0.43800    1.000
    C4       C        0.33163    0.75507    0.31200    1.000
    C4       C        0.41837    0.25507    0.93800    1.000
    C4       C        0.49493    0.43800    0.83163    1.000
    C4       C        0.99493    0.81200    0.91837    1.000
    C4       C        0.25507    0.93800    0.41837    1.000
    C4       C        0.75507    0.31200    0.33163    1.000
    C4       C        0.33163    0.81200    0.25507    1.000
    C4       C        0.41837    0.43800    0.75507    1.000
    C4       C        0.91837    0.31200    0.49493    1.000
    C4       C        0.83163    0.93800    0.99493    1.000
    C4       C        0.75507    0.83163    0.81200    1.000
    C4       C        0.25507    0.91837    0.43800    1.000
    C4       C        0.99493    0.41837    0.31200    1.000
    C4       C        0.49493    0.33163    0.93800    1.000
    C4       C        0.31200    0.25507    0.83163    1.000
    C4       C        0.93800    0.75507    0.91837    1.000
    C4       C        0.81200    0.49493    0.41837    1.000
    C4       C        0.43800    0.99493    0.33163    1.000
    C4       C        0.06200    0.08163    0.24493    1.000
    C4       C        0.68800    0.16837    0.74493    1.000
    C4       C        0.56200    0.66837    0.00507    1.000
    C4       C        0.18800    0.58163    0.50507    1.000
    C4       C        0.08163    0.50507    0.68800    1.000
    C4       C        0.16837    0.00507    0.06200    1.000
    C4       C        0.66837    0.74493    0.18800    1.000
    C4       C        0.58163    0.24493    0.56200    1.000
    C4       C        0.50507    0.06200    0.66837    1.000
    C4       C        0.00507    0.68800    0.58163    1.000
    C4       C        0.74493    0.56200    0.08163    1.000
    C4       C        0.24493    0.18800    0.16837    1.000
    C4       C        0.66837    0.18800    0.74493    1.000
    C4       C        0.58163    0.56200    0.24493    1.000
    C4       C        0.08163    0.68800    0.50507    1.000
    C4       C        0.16837    0.06200    0.00507    1.000
    C4       C        0.24493    0.16837    0.18800    1.000
    C4       C        0.74493    0.08163    0.56200    1.000
    C4       C        0.00507    0.58163    0.68800    1.000
    C4       C        0.50507    0.66837    0.06200    1.000
    C4       C        0.68800    0.74493    0.16837    1.000
    C4       C        0.06200    0.24493    0.08163    1.000
    C4       C        0.18800    0.50507    0.58163    1.000
    C4       C        0.56200    0.00507    0.66837    1.000
    C4       C        0.93800    0.91837    0.75507    1.000
    C4       C        0.31200    0.83163    0.25507    1.000
    C4       C        0.43800    0.33163    0.99493    1.000
    C4       C        0.81200    0.41837    0.49493    1.000
    C4       C        0.91837    0.49493    0.31200    1.000
    C4       C        0.83163    0.99493    0.93800    1.000
    C4       C        0.33163    0.25507    0.81200    1.000
    C4       C        0.41837    0.75507    0.43800    1.000
    C4       C        0.49493    0.93800    0.33163    1.000
    C4       C        0.99493    0.31200    0.41837    1.000
    C4       C        0.25507    0.43800    0.91837    1.000
    C4       C        0.75507    0.81200    0.83163    1.000
    C4       C        0.83163    0.31200    0.25507    1.000
    C4       C        0.91837    0.93800    0.75507    1.000
    C4       C        0.41837    0.81200    0.49493    1.000
    C4       C        0.33163    0.43800    0.99493    1.000
    C4       C        0.25507    0.33163    0.81200    1.000
    C4       C        0.75507    0.41837    0.43800    1.000
    C4       C        0.49493    0.91837    0.31200    1.000
    C4       C        0.99493    0.83163    0.93800    1.000
    C4       C        0.81200    0.75507    0.83163    1.000
    C4       C        0.43800    0.25507    0.91837    1.000
    C4       C        0.31200    0.99493    0.41837    1.000
    C4       C        0.93800    0.49493    0.33163    1.000
    C4       C        0.56200    0.58163    0.24493    1.000
    C4       C        0.18800    0.66837    0.74493    1.000
    C4       C        0.06200    0.16837    0.00507    1.000
    C4       C        0.68800    0.08163    0.50507    1.000
    C4       C        0.58163    0.00507    0.68800    1.000
    C4       C        0.66837    0.50507    0.06200    1.000
    C4       C        0.16837    0.24493    0.18800    1.000
    C4       C        0.08163    0.74493    0.56200    1.000
    C4       C        0.00507    0.56200    0.66837    1.000
    C4       C        0.50507    0.18800    0.58163    1.000
    C4       C        0.24493    0.06200    0.08163    1.000
    C4       C        0.74493    0.68800    0.16837    1.000
    C4       C        0.16837    0.68800    0.74493    1.000
    C4       C        0.08163    0.06200    0.24493    1.000
    C4       C        0.58163    0.18800    0.50507    1.000
    C4       C        0.66837    0.56200    0.00507    1.000
    C4       C        0.74493    0.66837    0.18800    1.000
    C4       C        0.24493    0.58163    0.56200    1.000
    C4       C        0.50507    0.08163    0.68800    1.000
    C4       C        0.00507    0.16837    0.06200    1.000
    C4       C        0.18800    0.24493    0.16837    1.000
    C4       C        0.56200    0.74493    0.08163    1.000
    C4       C        0.68800    0.00507    0.58163    1.000
    C4       C        0.06200    0.50507    0.66837    1.000
    C4       C        0.43800    0.41837    0.75507    1.000
    C4       C        0.81200    0.33163    0.25507    1.000
    C4       C        0.93800    0.83163    0.99493    1.000
    C4       C        0.31200    0.91837    0.49493    1.000
    C4       C        0.41837    0.99493    0.31200    1.000
    C4       C        0.33163    0.49493    0.93800    1.000
    C4       C        0.83163    0.75507    0.81200    1.000
    C4       C        0.91837    0.25507    0.43800    1.000
    C4       C        0.99493    0.43800    0.33163    1.000
    C4       C        0.49493    0.81200    0.41837    1.000
    C4       C        0.75507    0.93800    0.91837    1.000
    C4       C        0.25507    0.31200    0.83163    1.000
    C4       C        0.83163    0.81200    0.75507    1.000
    C4       C        0.91837    0.43800    0.25507    1.000
    C4       C        0.41837    0.31200    0.99493    1.000
    C4       C        0.33163    0.93800    0.49493    1.000
    C4       C        0.25507    0.83163    0.31200    1.000
    C4       C        0.75507    0.91837    0.93800    1.000
    C4       C        0.49493    0.41837    0.81200    1.000
    C4       C        0.99493    0.33163    0.43800    1.000
    C4       C        0.81200    0.25507    0.33163    1.000
    C4       C        0.43800    0.75507    0.41837    1.000
    C4       C        0.31200    0.49493    0.91837    1.000
    C4       C        0.93800    0.99493    0.83163    1.000
    C4       C        0.56200    0.08163    0.74493    1.000
    C4       C        0.18800    0.16837    0.24493    1.000
    C4       C        0.06200    0.66837    0.50507    1.000
    C4       C        0.68800    0.58163    0.00507    1.000
    C4       C        0.58163    0.50507    0.18800    1.000
    C4       C        0.66837    0.00507    0.56200    1.000
    C4       C        0.16837    0.74493    0.68800    1.000
    C4       C        0.08163    0.24493    0.06200    1.000
    C4       C        0.00507    0.06200    0.16837    1.000
    C4       C        0.50507    0.68800    0.08163    1.000
    C4       C        0.24493    0.56200    0.58163    1.000
    C4       C        0.74493    0.18800    0.66837    1.000
    C4       C        0.16837    0.18800    0.24493    1.000
    C4       C        0.08163    0.56200    0.74493    1.000
    C4       C        0.58163    0.68800    0.00507    1.000
    C4       C        0.66837    0.06200    0.50507    1.000
    C4       C        0.74493    0.16837    0.68800    1.000
    C4       C        0.24493    0.08163    0.06200    1.000
    C4       C        0.50507    0.58163    0.18800    1.000
    C4       C        0.00507    0.66837    0.56200    1.000
    C4       C        0.18800    0.74493    0.66837    1.000
    C4       C        0.56200    0.24493    0.58163    1.000
    C4       C        0.68800    0.50507    0.08163    1.000
    C4       C        0.06200    0.00507    0.16837    1.000
    C4       C        0.43800    0.91837    0.25507    1.000
    C4       C        0.81200    0.83163    0.75507    1.000
    C4       C        0.93800    0.33163    0.49493    1.000
    C4       C        0.31200    0.41837    0.99493    1.000
    C4       C        0.41837    0.49493    0.81200    1.000
    C4       C        0.33163    0.99493    0.43800    1.000
    C4       C        0.83163    0.25507    0.31200    1.000
    C4       C        0.91837    0.75507    0.93800    1.000
    C4       C        0.99493    0.93800    0.83163    1.000
    C4       C        0.49493    0.31200    0.91837    1.000
    C4       C        0.75507    0.43800    0.41837    1.000
    C4       C        0.25507    0.81200    0.33163    1.000
    C5       C        0.56586    0.06586    0.76664    1.000
    C5       C        0.06586    0.68414    0.48336    1.000
    C5       C        0.68414    0.56586    0.98336    1.000
    C5       C        0.26664    0.18414    0.18414    1.000
    C5       C        0.76664    0.56586    0.06586    1.000
    C5       C        0.48336    0.06586    0.68414    1.000
    C5       C        0.98336    0.68414    0.56586    1.000
    C5       C        0.18414    0.26664    0.18414    1.000
    C5       C        0.06586    0.76664    0.56586    1.000
    C5       C        0.68414    0.48336    0.06586    1.000
    C5       C        0.56586    0.98336    0.68414    1.000
    C5       C        0.93414    0.43414    0.23336    1.000
    C5       C        0.81586    0.81586    0.73336    1.000
    C5       C        0.43414    0.31586    0.01664    1.000
    C5       C        0.31586    0.93414    0.51664    1.000
    C5       C        0.93414    0.51664    0.31586    1.000
    C5       C        0.31586    0.01664    0.43414    1.000
    C5       C        0.81586    0.73336    0.81586    1.000
    C5       C        0.43414    0.23336    0.93414    1.000
    C5       C        0.01664    0.43414    0.31586    1.000
    C5       C        0.51664    0.31586    0.93414    1.000
    C5       C        0.23336    0.93414    0.43414    1.000
    C5       C        0.73336    0.81586    0.81586    1.000
    C5       C        0.43414    0.93414    0.23336    1.000
    C5       C        0.93414    0.31586    0.51664    1.000
    C5       C        0.31586    0.43414    0.01664    1.000
    C5       C        0.23336    0.43414    0.93414    1.000
    C5       C        0.51664    0.93414    0.31586    1.000
    C5       C        0.01664    0.31586    0.43414    1.000
    C5       C        0.93414    0.23336    0.43414    1.000
    C5       C        0.31586    0.51664    0.93414    1.000
    C5       C        0.43414    0.01664    0.31586    1.000
    C5       C        0.06586    0.56586    0.76664    1.000
    C5       C        0.56586    0.68414    0.98336    1.000
    C5       C        0.68414    0.06586    0.48336    1.000
    C5       C        0.06586    0.48336    0.68414    1.000
    C5       C        0.68414    0.98336    0.56586    1.000
    C5       C        0.56586    0.76664    0.06586    1.000
    C5       C        0.98336    0.56586    0.68414    1.000
    C5       C        0.48336    0.68414    0.06586    1.000
    C5       C        0.76664    0.06586    0.56586    1.000
    C5       C        0.18414    0.68414    0.76664    1.000
    C5       C        0.56586    0.56586    0.26664    1.000
    C5       C        0.06586    0.18414    0.98336    1.000
    C5       C        0.26664    0.68414    0.68414    1.000
    C5       C        0.48336    0.56586    0.18414    1.000
    C5       C        0.98336    0.18414    0.06586    1.000
    C5       C        0.18414    0.76664    0.68414    1.000
    C5       C        0.06586    0.26664    0.06586    1.000
    C5       C        0.56586    0.48336    0.18414    1.000
    C5       C        0.93414    0.93414    0.73336    1.000
    C5       C        0.81586    0.31586    0.23336    1.000
    C5       C        0.43414    0.81586    0.51664    1.000
    C5       C        0.93414    0.01664    0.81586    1.000
    C5       C        0.81586    0.23336    0.31586    1.000
    C5       C        0.43414    0.73336    0.43414    1.000
    C5       C        0.01664    0.93414    0.81586    1.000
    C5       C        0.51664    0.81586    0.43414    1.000
    C5       C        0.73336    0.31586    0.31586    1.000
    C5       C        0.43414    0.43414    0.73336    1.000
    C5       C        0.93414    0.81586    0.01664    1.000
    C5       C        0.51664    0.43414    0.81586    1.000
    C5       C        0.01664    0.81586    0.93414    1.000
    C5       C        0.93414    0.73336    0.93414    1.000
    C5       C        0.43414    0.51664    0.81586    1.000
    C5       C        0.06586    0.06586    0.26664    1.000
    C5       C        0.56586    0.18414    0.48336    1.000
    C5       C        0.06586    0.98336    0.18414    1.000
    C5       C        0.56586    0.26664    0.56586    1.000
    C5       C        0.98336    0.06586    0.18414    1.000
    C5       C        0.48336    0.18414    0.56586    1.000
    C5       C        0.68414    0.18414    0.76664    1.000
    C5       C        0.18414    0.56586    0.48336    1.000
    C5       C        0.76664    0.18414    0.68414    1.000
    C5       C        0.26664    0.56586    0.56586    1.000
    C5       C        0.68414    0.26664    0.68414    1.000
    C5       C        0.18414    0.48336    0.56586    1.000
    C5       C        0.31586    0.81586    0.23336    1.000
    C5       C        0.81586    0.93414    0.01664    1.000
    C5       C        0.81586    0.01664    0.93414    1.000
    C5       C        0.31586    0.73336    0.31586    1.000
    C5       C        0.73336    0.93414    0.93414    1.000
    C5       C        0.23336    0.81586    0.31586    1.000
    C5       C        0.81586    0.43414    0.51664    1.000
    C5       C        0.73336    0.43414    0.43414    1.000
    C5       C        0.81586    0.51664    0.43414    1.000
    C5       C        0.18414    0.06586    0.98336    1.000
    C5       C        0.18414    0.98336    0.06586    1.000
    C5       C        0.26664    0.06586    0.06586    1.000
    C5       C        0.68414    0.68414    0.26664    1.000
    C5       C        0.76664    0.68414    0.18414    1.000
    C5       C        0.68414    0.76664    0.18414    1.000
    C5       C        0.31586    0.31586    0.73336    1.000
    C5       C        0.31586    0.23336    0.81586    1.000
    C5       C        0.23336    0.31586    0.81586    1.000
    C6       C        0.57145    0.07145    0.75298    1.000
    C6       C        0.07145    0.67855    0.49702    1.000
    C6       C        0.67855    0.57145    0.99702    1.000
    C6       C        0.25298    0.17855    0.17855    1.000
    C6       C        0.75298    0.57145    0.07145    1.000
    C6       C        0.49702    0.07145    0.67855    1.000
    C6       C        0.99702    0.67855    0.57145    1.000
    C6       C        0.17855    0.25298    0.17855    1.000
    C6       C        0.07145    0.75298    0.57145    1.000
    C6       C        0.67855    0.49702    0.07145    1.000
    C6       C        0.57145    0.99702    0.67855    1.000
    C6       C        0.92855    0.42855    0.24702    1.000
    C6       C        0.82145    0.82145    0.74702    1.000
    C6       C        0.42855    0.32145    0.00298    1.000
    C6       C        0.32145    0.92855    0.50298    1.000
    C6       C        0.92855    0.50298    0.32145    1.000
    C6       C        0.32145    0.00298    0.42855    1.000
    C6       C        0.82145    0.74702    0.82145    1.000
    C6       C        0.42855    0.24702    0.92855    1.000
    C6       C        0.00298    0.42855    0.32145    1.000
    C6       C        0.50298    0.32145    0.92855    1.000
    C6       C        0.24702    0.92855    0.42855    1.000
    C6       C        0.74702    0.82145    0.82145    1.000
    C6       C        0.42855    0.92855    0.24702    1.000
    C6       C        0.92855    0.32145    0.50298    1.000
    C6       C        0.32145    0.42855    0.00298    1.000
    C6       C        0.24702    0.42855    0.92855    1.000
    C6       C        0.50298    0.92855    0.32145    1.000
    C6       C        0.00298    0.32145    0.42855    1.000
    C6       C        0.92855    0.24702    0.42855    1.000
    C6       C        0.32145    0.50298    0.92855    1.000
    C6       C        0.42855    0.00298    0.32145    1.000
    C6       C        0.07145    0.57145    0.75298    1.000
    C6       C        0.57145    0.67855    0.99702    1.000
    C6       C        0.67855    0.07145    0.49702    1.000
    C6       C        0.07145    0.49702    0.67855    1.000
    C6       C        0.67855    0.99702    0.57145    1.000
    C6       C        0.57145    0.75298    0.07145    1.000
    C6       C        0.99702    0.57145    0.67855    1.000
    C6       C        0.49702    0.67855    0.07145    1.000
    C6       C        0.75298    0.07145    0.57145    1.000
    C6       C        0.17855    0.67855    0.75298    1.000
    C6       C        0.57145    0.57145    0.25298    1.000
    C6       C        0.07145    0.17855    0.99702    1.000
    C6       C        0.25298    0.67855    0.67855    1.000
    C6       C        0.49702    0.57145    0.17855    1.000
    C6       C        0.99702    0.17855    0.07145    1.000
    C6       C        0.17855    0.75298    0.67855    1.000
    C6       C        0.07145    0.25298    0.07145    1.000
    C6       C        0.57145    0.49702    0.17855    1.000
    C6       C        0.92855    0.92855    0.74702    1.000
    C6       C        0.82145    0.32145    0.24702    1.000
    C6       C        0.42855    0.82145    0.50298    1.000
    C6       C        0.92855    0.00298    0.82145    1.000
    C6       C        0.82145    0.24702    0.32145    1.000
    C6       C        0.42855    0.74702    0.42855    1.000
    C6       C        0.00298    0.92855    0.82145    1.000
    C6       C        0.50298    0.82145    0.42855    1.000
    C6       C        0.74702    0.32145    0.32145    1.000
    C6       C        0.42855    0.42855    0.74702    1.000
    C6       C        0.92855    0.82145    0.00298    1.000
    C6       C        0.50298    0.42855    0.82145    1.000
    C6       C        0.00298    0.82145    0.92855    1.000
    C6       C        0.92855    0.74702    0.92855    1.000
    C6       C        0.42855    0.50298    0.82145    1.000
    C6       C        0.07145    0.07145    0.25298    1.000
    C6       C        0.57145    0.17855    0.49702    1.000
    C6       C        0.07145    0.99702    0.17855    1.000
    C6       C        0.57145    0.25298    0.57145    1.000
    C6       C        0.99702    0.07145    0.17855    1.000
    C6       C        0.49702    0.17855    0.57145    1.000
    C6       C        0.67855    0.17855    0.75298    1.000
    C6       C        0.17855    0.57145    0.49702    1.000
    C6       C        0.75298    0.17855    0.67855    1.000
    C6       C        0.25298    0.57145    0.57145    1.000
    C6       C        0.67855    0.25298    0.67855    1.000
    C6       C        0.17855    0.49702    0.57145    1.000
    C6       C        0.32145    0.82145    0.24702    1.000
    C6       C        0.82145    0.92855    0.00298    1.000
    C6       C        0.82145    0.00298    0.92855    1.000
    C6       C        0.32145    0.74702    0.32145    1.000
    C6       C        0.74702    0.92855    0.92855    1.000
    C6       C        0.24702    0.82145    0.32145    1.000
    C6       C        0.82145    0.42855    0.50298    1.000
    C6       C        0.74702    0.42855    0.42855    1.000
    C6       C        0.82145    0.50298    0.42855    1.000
    C6       C        0.17855    0.07145    0.99702    1.000
    C6       C        0.17855    0.99702    0.07145    1.000
    C6       C        0.25298    0.07145    0.07145    1.000
    C6       C        0.67855    0.67855    0.25298    1.000
    C6       C        0.75298    0.67855    0.17855    1.000
    C6       C        0.67855    0.75298    0.17855    1.000
    C6       C        0.32145    0.32145    0.74702    1.000
    C6       C        0.32145    0.24702    0.82145    1.000
    C6       C        0.24702    0.32145    0.82145    1.000
    C7       C        0.41494    0.93470    0.27052    1.000
    C7       C        0.91494    0.81530    0.97948    1.000
    C7       C        0.83506    0.43470    0.47948    1.000
    C7       C        0.77052    0.33506    0.31530    1.000
    C7       C        0.27052    0.41494    0.93470    1.000
    C7       C        0.97948    0.91494    0.81530    1.000
    C7       C        0.47948    0.83506    0.43470    1.000
    C7       C        0.31530    0.77052    0.33506    1.000
    C7       C        0.93470    0.27052    0.41494    1.000
    C7       C        0.81530    0.97948    0.91494    1.000
    C7       C        0.43470    0.47948    0.83506    1.000
    C7       C        0.06530    0.58506    0.72948    1.000
    C7       C        0.68470    0.66494    0.22948    1.000
    C7       C        0.56530    0.16494    0.52052    1.000
    C7       C        0.18470    0.08506    0.02052    1.000
    C7       C        0.08506    0.02052    0.18470    1.000
    C7       C        0.16494    0.52052    0.56530    1.000
    C7       C        0.66494    0.22948    0.68470    1.000
    C7       C        0.58506    0.72948    0.06530    1.000
    C7       C        0.52052    0.56530    0.16494    1.000
    C7       C        0.02052    0.18470    0.08506    1.000
    C7       C        0.72948    0.06530    0.58506    1.000
    C7       C        0.22948    0.68470    0.66494    1.000
    C7       C        0.66494    0.68470    0.22948    1.000
    C7       C        0.58506    0.06530    0.72948    1.000
    C7       C        0.08506    0.18470    0.02052    1.000
    C7       C        0.16494    0.56530    0.52052    1.000
    C7       C        0.22948    0.66494    0.68470    1.000
    C7       C        0.72948    0.58506    0.06530    1.000
    C7       C        0.02052    0.08506    0.18470    1.000
    C7       C        0.52052    0.16494    0.56530    1.000
    C7       C        0.68470    0.22948    0.66494    1.000
    C7       C        0.06530    0.72948    0.58506    1.000
    C7       C        0.18470    0.02052    0.08506    1.000
    C7       C        0.56530    0.52052    0.16494    1.000
    C7       C        0.93470    0.41494    0.27052    1.000
    C7       C        0.31530    0.33506    0.77052    1.000
    C7       C        0.43470    0.83506    0.47948    1.000
    C7       C        0.81530    0.91494    0.97948    1.000
    C7       C        0.91494    0.97948    0.81530    1.000
    C7       C        0.83506    0.47948    0.43470    1.000
    C7       C        0.33506    0.77052    0.31530    1.000
    C7       C        0.41494    0.27052    0.93470    1.000
    C7       C        0.47948    0.43470    0.83506    1.000
    C7       C        0.97948    0.81530    0.91494    1.000
    C7       C        0.27052    0.93470    0.41494    1.000
    C7       C        0.77052    0.31530    0.33506    1.000
    C7       C        0.33506    0.81530    0.27052    1.000
    C7       C        0.41494    0.43470    0.77052    1.000
    C7       C        0.91494    0.31530    0.47948    1.000
    C7       C        0.83506    0.93470    0.97948    1.000
    C7       C        0.77052    0.83506    0.81530    1.000
    C7       C        0.27052    0.91494    0.43470    1.000
    C7       C        0.97948    0.41494    0.31530    1.000
    C7       C        0.47948    0.33506    0.93470    1.000
    C7       C        0.31530    0.27052    0.83506    1.000
    C7       C        0.93470    0.77052    0.91494    1.000
    C7       C        0.81530    0.47948    0.41494    1.000
    C7       C        0.43470    0.97948    0.33506    1.000
    C7       C        0.06530    0.08506    0.22948    1.000
    C7       C        0.68470    0.16494    0.72948    1.000
    C7       C        0.56530    0.66494    0.02052    1.000
    C7       C        0.18470    0.58506    0.52052    1.000
    C7       C        0.08506    0.52052    0.68470    1.000
    C7       C        0.16494    0.02052    0.06530    1.000
    C7       C        0.66494    0.72948    0.18470    1.000
    C7       C        0.58506    0.22948    0.56530    1.000
    C7       C        0.52052    0.06530    0.66494    1.000
    C7       C        0.02052    0.68470    0.58506    1.000
    C7       C        0.72948    0.56530    0.08506    1.000
    C7       C        0.22948    0.18470    0.16494    1.000
    C7       C        0.66494    0.18470    0.72948    1.000
    C7       C        0.58506    0.56530    0.22948    1.000
    C7       C        0.08506    0.68470    0.52052    1.000
    C7       C        0.16494    0.06530    0.02052    1.000
    C7       C        0.22948    0.16494    0.18470    1.000
    C7       C        0.72948    0.08506    0.56530    1.000
    C7       C        0.02052    0.58506    0.68470    1.000
    C7       C        0.52052    0.66494    0.06530    1.000
    C7       C        0.68470    0.72948    0.16494    1.000
    C7       C        0.06530    0.22948    0.08506    1.000
    C7       C        0.18470    0.52052    0.58506    1.000
    C7       C        0.56530    0.02052    0.66494    1.000
    C7       C        0.93470    0.91494    0.77052    1.000
    C7       C        0.31530    0.83506    0.27052    1.000
    C7       C        0.43470    0.33506    0.97948    1.000
    C7       C        0.81530    0.41494    0.47948    1.000
    C7       C        0.91494    0.47948    0.31530    1.000
    C7       C        0.83506    0.97948    0.93470    1.000
    C7       C        0.33506    0.27052    0.81530    1.000
    C7       C        0.41494    0.77052    0.43470    1.000
    C7       C        0.47948    0.93470    0.33506    1.000
    C7       C        0.97948    0.31530    0.41494    1.000
    C7       C        0.27052    0.43470    0.91494    1.000
    C7       C        0.77052    0.81530    0.83506    1.000
    C7       C        0.83506    0.31530    0.27052    1.000
    C7       C        0.91494    0.93470    0.77052    1.000
    C7       C        0.41494    0.81530    0.47948    1.000
    C7       C        0.33506    0.43470    0.97948    1.000
    C7       C        0.27052    0.33506    0.81530    1.000
    C7       C        0.77052    0.41494    0.43470    1.000
    C7       C        0.47948    0.91494    0.31530    1.000
    C7       C        0.97948    0.83506    0.93470    1.000
    C7       C        0.81530    0.77052    0.83506    1.000
    C7       C        0.43470    0.27052    0.91494    1.000
    C7       C        0.31530    0.97948    0.41494    1.000
    C7       C        0.93470    0.47948    0.33506    1.000
    C7       C        0.56530    0.58506    0.22948    1.000
    C7       C        0.18470    0.66494    0.72948    1.000
    C7       C        0.06530    0.16494    0.02052    1.000
    C7       C        0.68470    0.08506    0.52052    1.000
    C7       C        0.58506    0.02052    0.68470    1.000
    C7       C        0.66494    0.52052    0.06530    1.000
    C7       C        0.16494    0.22948    0.18470    1.000
    C7       C        0.08506    0.72948    0.56530    1.000
    C7       C        0.02052    0.56530    0.66494    1.000
    C7       C        0.52052    0.18470    0.58506    1.000
    C7       C        0.22948    0.06530    0.08506    1.000
    C7       C        0.72948    0.68470    0.16494    1.000
    C7       C        0.16494    0.68470    0.72948    1.000
    C7       C        0.08506    0.06530    0.22948    1.000
    C7       C        0.58506    0.18470    0.52052    1.000
    C7       C        0.66494    0.56530    0.02052    1.000
    C7       C        0.72948    0.66494    0.18470    1.000
    C7       C        0.22948    0.58506    0.56530    1.000
    C7       C        0.52052    0.08506    0.68470    1.000
    C7       C        0.02052    0.16494    0.06530    1.000
    C7       C        0.18470    0.22948    0.16494    1.000
    C7       C        0.56530    0.72948    0.08506    1.000
    C7       C        0.68470    0.02052    0.58506    1.000
    C7       C        0.06530    0.52052    0.66494    1.000
    C7       C        0.43470    0.41494    0.77052    1.000
    C7       C        0.81530    0.33506    0.27052    1.000
    C7       C        0.93470    0.83506    0.97948    1.000
    C7       C        0.31530    0.91494    0.47948    1.000
    C7       C        0.41494    0.97948    0.31530    1.000
    C7       C        0.33506    0.47948    0.93470    1.000
    C7       C        0.83506    0.77052    0.81530    1.000
    C7       C        0.91494    0.27052    0.43470    1.000
    C7       C        0.97948    0.43470    0.33506    1.000
    C7       C        0.47948    0.81530    0.41494    1.000
    C7       C        0.77052    0.93470    0.91494    1.000
    C7       C        0.27052    0.31530    0.83506    1.000
    C7       C        0.83506    0.81530    0.77052    1.000
    C7       C        0.91494    0.43470    0.27052    1.000
    C7       C        0.41494    0.31530    0.97948    1.000
    C7       C        0.33506    0.93470    0.47948    1.000
    C7       C        0.27052    0.83506    0.31530    1.000
    C7       C        0.77052    0.91494    0.93470    1.000
    C7       C        0.47948    0.41494    0.81530    1.000
    C7       C        0.97948    0.33506    0.43470    1.000
    C7       C        0.81530    0.27052    0.33506    1.000
    C7       C        0.43470    0.77052    0.41494    1.000
    C7       C        0.31530    0.47948    0.91494    1.000
    C7       C        0.93470    0.97948    0.83506    1.000
    C7       C        0.56530    0.08506    0.72948    1.000
    C7       C        0.18470    0.16494    0.22948    1.000
    C7       C        0.06530    0.66494    0.52052    1.000
    C7       C        0.68470    0.58506    0.02052    1.000
    C7       C        0.58506    0.52052    0.18470    1.000
    C7       C        0.66494    0.02052    0.56530    1.000
    C7       C        0.16494    0.72948    0.68470    1.000
    C7       C        0.08506    0.22948    0.06530    1.000
    C7       C        0.02052    0.06530    0.16494    1.000
    C7       C        0.52052    0.68470    0.08506    1.000
    C7       C        0.22948    0.56530    0.58506    1.000
    C7       C        0.72948    0.18470    0.66494    1.000
    C7       C        0.16494    0.18470    0.22948    1.000
    C7       C        0.08506    0.56530    0.72948    1.000
    C7       C        0.58506    0.68470    0.02052    1.000
    C7       C        0.66494    0.06530    0.52052    1.000
    C7       C        0.72948    0.16494    0.68470    1.000
    C7       C        0.22948    0.08506    0.06530    1.000
    C7       C        0.52052    0.58506    0.18470    1.000
    C7       C        0.02052    0.66494    0.56530    1.000
    C7       C        0.18470    0.72948    0.66494    1.000
    C7       C        0.56530    0.22948    0.58506    1.000
    C7       C        0.68470    0.52052    0.08506    1.000
    C7       C        0.06530    0.02052    0.16494    1.000
    C7       C        0.43470    0.91494    0.27052    1.000
    C7       C        0.81530    0.83506    0.77052    1.000
    C7       C        0.93470    0.33506    0.47948    1.000
    C7       C        0.31530    0.41494    0.97948    1.000
    C7       C        0.41494    0.47948    0.81530    1.000
    C7       C        0.33506    0.97948    0.43470    1.000
    C7       C        0.83506    0.27052    0.31530    1.000
    C7       C        0.91494    0.77052    0.93470    1.000
    C7       C        0.97948    0.93470    0.83506    1.000
    C7       C        0.47948    0.31530    0.91494    1.000
    C7       C        0.77052    0.43470    0.41494    1.000
    C7       C        0.27052    0.81530    0.33506    1.000
    C8       C        0.57917    0.07917    0.70626    1.000
    C8       C        0.07917    0.67083    0.54374    1.000
    C8       C        0.67083    0.57917    0.04374    1.000
    C8       C        0.20626    0.17083    0.17083    1.000
    C8       C        0.70626    0.57917    0.07917    1.000
    C8       C        0.54374    0.07917    0.67083    1.000
    C8       C        0.04374    0.67083    0.57917    1.000
    C8       C        0.17083    0.20626    0.17083    1.000
    C8       C        0.07917    0.70626    0.57917    1.000
    C8       C        0.67083    0.54374    0.07917    1.000
    C8       C        0.57917    0.04374    0.67083    1.000
    C8       C        0.92083    0.42083    0.29374    1.000
    C8       C        0.82917    0.82917    0.79374    1.000
    C8       C        0.42083    0.32917    0.95626    1.000
    C8       C        0.32917    0.92083    0.45626    1.000
    C8       C        0.92083    0.45626    0.32917    1.000
    C8       C        0.32917    0.95626    0.42083    1.000
    C8       C        0.82917    0.79374    0.82917    1.000
    C8       C        0.42083    0.29374    0.92083    1.000
    C8       C        0.95626    0.42083    0.32917    1.000
    C8       C        0.45626    0.32917    0.92083    1.000
    C8       C        0.29374    0.92083    0.42083    1.000
    C8       C        0.79374    0.82917    0.82917    1.000
    C8       C        0.42083    0.92083    0.29374    1.000
    C8       C        0.92083    0.32917    0.45626    1.000
    C8       C        0.32917    0.42083    0.95626    1.000
    C8       C        0.29374    0.42083    0.92083    1.000
    C8       C        0.45626    0.92083    0.32917    1.000
    C8       C        0.95626    0.32917    0.42083    1.000
    C8       C        0.92083    0.29374    0.42083    1.000
    C8       C        0.32917    0.45626    0.92083    1.000
    C8       C        0.42083    0.95626    0.32917    1.000
    C8       C        0.07917    0.57917    0.70626    1.000
    C8       C        0.57917    0.67083    0.04374    1.000
    C8       C        0.67083    0.07917    0.54374    1.000
    C8       C        0.07917    0.54374    0.67083    1.000
    C8       C        0.67083    0.04374    0.57917    1.000
    C8       C        0.57917    0.70626    0.07917    1.000
    C8       C        0.04374    0.57917    0.67083    1.000
    C8       C        0.54374    0.67083    0.07917    1.000
    C8       C        0.70626    0.07917    0.57917    1.000
    C8       C        0.17083    0.67083    0.70626    1.000
    C8       C        0.57917    0.57917    0.20626    1.000
    C8       C        0.07917    0.17083    0.04374    1.000
    C8       C        0.20626    0.67083    0.67083    1.000
    C8       C        0.54374    0.57917    0.17083    1.000
    C8       C        0.04374    0.17083    0.07917    1.000
    C8       C        0.17083    0.70626    0.67083    1.000
    C8       C        0.07917    0.20626    0.07917    1.000
    C8       C        0.57917    0.54374    0.17083    1.000
    C8       C        0.92083    0.92083    0.79374    1.000
    C8       C        0.82917    0.32917    0.29374    1.000
    C8       C        0.42083    0.82917    0.45626    1.000
    C8       C        0.92083    0.95626    0.82917    1.000
    C8       C        0.82917    0.29374    0.32917    1.000
    C8       C        0.42083    0.79374    0.42083    1.000
    C8       C        0.95626    0.92083    0.82917    1.000
    C8       C        0.45626    0.82917    0.42083    1.000
    C8       C        0.79374    0.32917    0.32917    1.000
    C8       C        0.42083    0.42083    0.79374    1.000
    C8       C        0.92083    0.82917    0.95626    1.000
    C8       C        0.45626    0.42083    0.82917    1.000
    C8       C        0.95626    0.82917    0.92083    1.000
    C8       C        0.92083    0.79374    0.92083    1.000
    C8       C        0.42083    0.45626    0.82917    1.000
    C8       C        0.07917    0.07917    0.20626    1.000
    C8       C        0.57917    0.17083    0.54374    1.000
    C8       C        0.07917    0.04374    0.17083    1.000
    C8       C        0.57917    0.20626    0.57917    1.000
    C8       C        0.04374    0.07917    0.17083    1.000
    C8       C        0.54374    0.17083    0.57917    1.000
    C8       C        0.67083    0.17083    0.70626    1.000
    C8       C        0.17083    0.57917    0.54374    1.000
    C8       C        0.70626    0.17083    0.67083    1.000
    C8       C        0.20626    0.57917    0.57917    1.000
    C8       C        0.67083    0.20626    0.67083    1.000
    C8       C        0.17083    0.54374    0.57917    1.000
    C8       C        0.32917    0.82917    0.29374    1.000
    C8       C        0.82917    0.92083    0.95626    1.000
    C8       C        0.82917    0.95626    0.92083    1.000
    C8       C        0.32917    0.79374    0.32917    1.000
    C8       C        0.79374    0.92083    0.92083    1.000
    C8       C        0.29374    0.82917    0.32917    1.000
    C8       C        0.82917    0.42083    0.45626    1.000
    C8       C        0.79374    0.42083    0.42083    1.000
    C8       C        0.82917    0.45626    0.42083    1.000
    C8       C        0.17083    0.07917    0.04374    1.000
    C8       C        0.17083    0.04374    0.07917    1.000
    C8       C        0.20626    0.07917    0.07917    1.000
    C8       C        0.67083    0.67083    0.20626    1.000
    C8       C        0.70626    0.67083    0.17083    1.000
    C8       C        0.67083    0.70626    0.17083    1.000
    C8       C        0.32917    0.32917    0.79374    1.000
    C8       C        0.32917    0.29374    0.82917    1.000
    C8       C        0.29374    0.32917    0.82917    1.000
    C9       C        0.57732    0.07732    0.72215    1.000
    C9       C        0.07732    0.67268    0.52785    1.000
    C9       C        0.67268    0.57732    0.02785    1.000
    C9       C        0.22215    0.17268    0.17268    1.000
    C9       C        0.72215    0.57732    0.07732    1.000
    C9       C        0.52785    0.07732    0.67268    1.000
    C9       C        0.02785    0.67268    0.57732    1.000
    C9       C        0.17268    0.22215    0.17268    1.000
    C9       C        0.07732    0.72215    0.57732    1.000
    C9       C        0.67268    0.52785    0.07732    1.000
    C9       C        0.57732    0.02785    0.67268    1.000
    C9       C        0.92268    0.42268    0.27785    1.000
    C9       C        0.82732    0.82732    0.77785    1.000
    C9       C        0.42268    0.32732    0.97215    1.000
    C9       C        0.32732    0.92268    0.47215    1.000
    C9       C        0.92268    0.47215    0.32732    1.000
    C9       C        0.32732    0.97215    0.42268    1.000
    C9       C        0.82732    0.77785    0.82732    1.000
    C9       C        0.42268    0.27785    0.92268    1.000
    C9       C        0.97215    0.42268    0.32732    1.000
    C9       C        0.47215    0.32732    0.92268    1.000
    C9       C        0.27785    0.92268    0.42268    1.000
    C9       C        0.77785    0.82732    0.82732    1.000
    C9       C        0.42268    0.92268    0.27785    1.000
    C9       C        0.92268    0.32732    0.47215    1.000
    C9       C        0.32732    0.42268    0.97215    1.000
    C9       C        0.27785    0.42268    0.92268    1.000
    C9       C        0.47215    0.92268    0.32732    1.000
    C9       C        0.97215    0.32732    0.42268    1.000
    C9       C        0.92268    0.27785    0.42268    1.000
    C9       C        0.32732    0.47215    0.92268    1.000
    C9       C        0.42268    0.97215    0.32732    1.000
    C9       C        0.07732    0.57732    0.72215    1.000
    C9       C        0.57732    0.67268    0.02785    1.000
    C9       C        0.67268    0.07732    0.52785    1.000
    C9       C        0.07732    0.52785    0.67268    1.000
    C9       C        0.67268    0.02785    0.57732    1.000
    C9       C        0.57732    0.72215    0.07732    1.000
    C9       C        0.02785    0.57732    0.67268    1.000
    C9       C        0.52785    0.67268    0.07732    1.000
    C9       C        0.72215    0.07732    0.57732    1.000
    C9       C        0.17268    0.67268    0.72215    1.000
    C9       C        0.57732    0.57732    0.22215    1.000
    C9       C        0.07732    0.17268    0.02785    1.000
    C9       C        0.22215    0.67268    0.67268    1.000
    C9       C        0.52785    0.57732    0.17268    1.000
    C9       C        0.02785    0.17268    0.07732    1.000
    C9       C        0.17268    0.72215    0.67268    1.000
    C9       C        0.07732    0.22215    0.07732    1.000
    C9       C        0.57732    0.52785    0.17268    1.000
    C9       C        0.92268    0.92268    0.77785    1.000
    C9       C        0.82732    0.32732    0.27785    1.000
    C9       C        0.42268    0.82732    0.47215    1.000
    C9       C        0.92268    0.97215    0.82732    1.000
    C9       C        0.82732    0.27785    0.32732    1.000
    C9       C        0.42268    0.77785    0.42268    1.000
    C9       C        0.97215    0.92268    0.82732    1.000
    C9       C        0.47215    0.82732    0.42268    1.000
    C9       C        0.77785    0.32732    0.32732    1.000
    C9       C        0.42268    0.42268    0.77785    1.000
    C9       C        0.92268    0.82732    0.97215    1.000
    C9       C        0.47215    0.42268    0.82732    1.000
    C9       C        0.97215    0.82732    0.92268    1.000
    C9       C        0.92268    0.77785    0.92268    1.000
    C9       C        0.42268    0.47215    0.82732    1.000
    C9       C        0.07732    0.07732    0.22215    1.000
    C9       C        0.57732    0.17268    0.52785    1.000
    C9       C        0.07732    0.02785    0.17268    1.000
    C9       C        0.57732    0.22215    0.57732    1.000
    C9       C        0.02785    0.07732    0.17268    1.000
    C9       C        0.52785    0.17268    0.57732    1.000
    C9       C        0.67268    0.17268    0.72215    1.000
    C9       C        0.17268    0.57732    0.52785    1.000
    C9       C        0.72215    0.17268    0.67268    1.000
    C9       C        0.22215    0.57732    0.57732    1.000
    C9       C        0.67268    0.22215    0.67268    1.000
    C9       C        0.17268    0.52785    0.57732    1.000
    C9       C        0.32732    0.82732    0.27785    1.000
    C9       C        0.82732    0.92268    0.97215    1.000
    C9       C        0.82732    0.97215    0.92268    1.000
    C9       C        0.32732    0.77785    0.32732    1.000
    C9       C        0.77785    0.92268    0.92268    1.000
    C9       C        0.27785    0.82732    0.32732    1.000
    C9       C        0.82732    0.42268    0.47215    1.000
    C9       C        0.77785    0.42268    0.42268    1.000
    C9       C        0.82732    0.47215    0.42268    1.000
    C9       C        0.17268    0.07732    0.02785    1.000
    C9       C        0.17268    0.02785    0.07732    1.000
    C9       C        0.22215    0.07732    0.07732    1.000
    C9       C        0.67268    0.67268    0.22215    1.000
    C9       C        0.72215    0.67268    0.17268    1.000
    C9       C        0.67268    0.72215    0.17268    1.000
    C9       C        0.32732    0.32732    0.77785    1.000
    C9       C        0.32732    0.27785    0.82732    1.000
    C9       C        0.27785    0.32732    0.82732    1.000
    C10      C        0.51377    0.00252    0.29691    1.000
    C10      C        0.01377    0.74748    0.95309    1.000
    C10      C        0.73623    0.50252    0.45309    1.000
    C10      C        0.79691    0.23623    0.24748    1.000
    C10      C        0.29691    0.51377    0.00252    1.000
    C10      C        0.95309    0.01377    0.74748    1.000
    C10      C        0.45309    0.73623    0.50252    1.000
    C10      C        0.24748    0.79691    0.23623    1.000
    C10      C        0.00252    0.29691    0.51377    1.000
    C10      C        0.74748    0.95309    0.01377    1.000
    C10      C        0.50252    0.45309    0.73623    1.000
    C10      C        0.99748    0.48623    0.70309    1.000
    C10      C        0.75252    0.76377    0.20309    1.000
    C10      C        0.49748    0.26377    0.54691    1.000
    C10      C        0.25252    0.98623    0.04691    1.000
    C10      C        0.98623    0.04691    0.25252    1.000
    C10      C        0.26377    0.54691    0.49748    1.000
    C10      C        0.76377    0.20309    0.75252    1.000
    C10      C        0.48623    0.70309    0.99748    1.000
    C10      C        0.54691    0.49748    0.26377    1.000
    C10      C        0.04691    0.25252    0.98623    1.000
    C10      C        0.70309    0.99748    0.48623    1.000
    C10      C        0.20309    0.75252    0.76377    1.000
    C10      C        0.76377    0.75252    0.20309    1.000
    C10      C        0.48623    0.99748    0.70309    1.000
    C10      C        0.98623    0.25252    0.04691    1.000
    C10      C        0.26377    0.49748    0.54691    1.000
    C10      C        0.20309    0.76377    0.75252    1.000
    C10      C        0.70309    0.48623    0.99748    1.000
    C10      C        0.04691    0.98623    0.25252    1.000
    C10      C        0.54691    0.26377    0.49748    1.000
    C10      C        0.75252    0.20309    0.76377    1.000
    C10      C        0.99748    0.70309    0.48623    1.000
    C10      C        0.25252    0.04691    0.98623    1.000
    C10      C        0.49748    0.54691    0.26377    1.000
    C10      C        0.00252    0.51377    0.29691    1.000
    C10      C        0.24748    0.23623    0.79691    1.000
    C10      C        0.50252    0.73623    0.45309    1.000
    C10      C        0.74748    0.01377    0.95309    1.000
    C10      C        0.01377    0.95309    0.74748    1.000
    C10      C        0.73623    0.45309    0.50252    1.000
    C10      C        0.23623    0.79691    0.24748    1.000
    C10      C        0.51377    0.29691    0.00252    1.000
    C10      C        0.45309    0.50252    0.73623    1.000
    C10      C        0.95309    0.74748    0.01377    1.000
    C10      C        0.29691    0.00252    0.51377    1.000
    C10      C        0.79691    0.24748    0.23623    1.000
    C10      C        0.23623    0.74748    0.29691    1.000
    C10      C        0.51377    0.50252    0.79691    1.000
    C10      C        0.01377    0.24748    0.45309    1.000
    C10      C        0.73623    0.00252    0.95309    1.000
    C10      C        0.79691    0.73623    0.74748    1.000
    C10      C        0.29691    0.01377    0.50252    1.000
    C10      C        0.95309    0.51377    0.24748    1.000
    C10      C        0.45309    0.23623    0.00252    1.000
    C10      C        0.24748    0.29691    0.73623    1.000
    C10      C        0.00252    0.79691    0.01377    1.000
    C10      C        0.74748    0.45309    0.51377    1.000
    C10      C        0.50252    0.95309    0.23623    1.000
    C10      C        0.99748    0.98623    0.20309    1.000
    C10      C        0.75252    0.26377    0.70309    1.000
    C10      C        0.49748    0.76377    0.04691    1.000
    C10      C        0.25252    0.48623    0.54691    1.000
    C10      C        0.98623    0.54691    0.75252    1.000
    C10      C        0.26377    0.04691    0.99748    1.000
    C10      C        0.76377    0.70309    0.25252    1.000
    C10      C        0.48623    0.20309    0.49748    1.000
    C10      C        0.54691    0.99748    0.76377    1.000
    C10      C        0.04691    0.75252    0.48623    1.000
    C10      C        0.70309    0.49748    0.98623    1.000
    C10      C        0.20309    0.25252    0.26377    1.000
    C10      C        0.76377    0.25252    0.70309    1.000
    C10      C        0.48623    0.49748    0.20309    1.000
    C10      C        0.98623    0.75252    0.54691    1.000
    C10      C        0.26377    0.99748    0.04691    1.000
    C10      C        0.20309    0.26377    0.25252    1.000
    C10      C        0.70309    0.98623    0.49748    1.000
    C10      C        0.04691    0.48623    0.75252    1.000
    C10      C        0.54691    0.76377    0.99748    1.000
    C10      C        0.75252    0.70309    0.26377    1.000
    C10      C        0.99748    0.20309    0.98623    1.000
    C10      C        0.25252    0.54691    0.48623    1.000
    C10      C        0.49748    0.04691    0.76377    1.000
    C10      C        0.00252    0.01377    0.79691    1.000
    C10      C        0.24748    0.73623    0.29691    1.000
    C10      C        0.50252    0.23623    0.95309    1.000
    C10      C        0.74748    0.51377    0.45309    1.000
    C10      C        0.01377    0.45309    0.24748    1.000
    C10      C        0.73623    0.95309    0.00252    1.000
    C10      C        0.23623    0.29691    0.74748    1.000
    C10      C        0.51377    0.79691    0.50252    1.000
    C10      C        0.45309    0.00252    0.23623    1.000
    C10      C        0.95309    0.24748    0.51377    1.000
    C10      C        0.29691    0.50252    0.01377    1.000
    C10      C        0.79691    0.74748    0.73623    1.000
    C10      C        0.73623    0.24748    0.29691    1.000
    C10      C        0.01377    0.00252    0.79691    1.000
    C10      C        0.51377    0.74748    0.45309    1.000
    C10      C        0.23623    0.50252    0.95309    1.000
    C10      C        0.29691    0.23623    0.74748    1.000
    C10      C        0.79691    0.51377    0.50252    1.000
    C10      C        0.45309    0.01377    0.24748    1.000
    C10      C        0.95309    0.73623    0.00252    1.000
    C10      C        0.74748    0.79691    0.73623    1.000
    C10      C        0.50252    0.29691    0.01377    1.000
    C10      C        0.24748    0.95309    0.51377    1.000
    C10      C        0.00252    0.45309    0.23623    1.000
    C10      C        0.49748    0.48623    0.20309    1.000
    C10      C        0.25252    0.76377    0.70309    1.000
    C10      C        0.99748    0.26377    0.04691    1.000
    C10      C        0.75252    0.98623    0.54691    1.000
    C10      C        0.48623    0.04691    0.75252    1.000
    C10      C        0.76377    0.54691    0.99748    1.000
    C10      C        0.26377    0.20309    0.25252    1.000
    C10      C        0.98623    0.70309    0.49748    1.000
    C10      C        0.04691    0.49748    0.76377    1.000
    C10      C        0.54691    0.25252    0.48623    1.000
    C10      C        0.20309    0.99748    0.98623    1.000
    C10      C        0.70309    0.75252    0.26377    1.000
    C10      C        0.26377    0.75252    0.70309    1.000
    C10      C        0.98623    0.99748    0.20309    1.000
    C10      C        0.48623    0.25252    0.54691    1.000
    C10      C        0.76377    0.49748    0.04691    1.000
    C10      C        0.70309    0.76377    0.25252    1.000
    C10      C        0.20309    0.48623    0.49748    1.000
    C10      C        0.54691    0.98623    0.75252    1.000
    C10      C        0.04691    0.26377    0.99748    1.000
    C10      C        0.25252    0.20309    0.26377    1.000
    C10      C        0.49748    0.70309    0.98623    1.000
    C10      C        0.75252    0.04691    0.48623    1.000
    C10      C        0.99748    0.54691    0.76377    1.000
    C10      C        0.50252    0.51377    0.79691    1.000
    C10      C        0.74748    0.23623    0.29691    1.000
    C10      C        0.00252    0.73623    0.95309    1.000
    C10      C        0.24748    0.01377    0.45309    1.000
    C10      C        0.51377    0.95309    0.24748    1.000
    C10      C        0.23623    0.45309    0.00252    1.000
    C10      C        0.73623    0.79691    0.74748    1.000
    C10      C        0.01377    0.29691    0.50252    1.000
    C10      C        0.95309    0.50252    0.23623    1.000
    C10      C        0.45309    0.74748    0.51377    1.000
    C10      C        0.79691    0.00252    0.01377    1.000
    C10      C        0.29691    0.24748    0.73623    1.000
    C10      C        0.73623    0.74748    0.79691    1.000
    C10      C        0.01377    0.50252    0.29691    1.000
    C10      C        0.51377    0.24748    0.95309    1.000
    C10      C        0.23623    0.00252    0.45309    1.000
    C10      C        0.29691    0.73623    0.24748    1.000
    C10      C        0.79691    0.01377    0.00252    1.000
    C10      C        0.45309    0.51377    0.74748    1.000
    C10      C        0.95309    0.23623    0.50252    1.000
    C10      C        0.74748    0.29691    0.23623    1.000
    C10      C        0.50252    0.79691    0.51377    1.000
    C10      C        0.24748    0.45309    0.01377    1.000
    C10      C        0.00252    0.95309    0.73623    1.000
    C10      C        0.49748    0.98623    0.70309    1.000
    C10      C        0.25252    0.26377    0.20309    1.000
    C10      C        0.99748    0.76377    0.54691    1.000
    C10      C        0.75252    0.48623    0.04691    1.000
    C10      C        0.48623    0.54691    0.25252    1.000
    C10      C        0.76377    0.04691    0.49748    1.000
    C10      C        0.26377    0.70309    0.75252    1.000
    C10      C        0.98623    0.20309    0.99748    1.000
    C10      C        0.04691    0.99748    0.26377    1.000
    C10      C        0.54691    0.75252    0.98623    1.000
    C10      C        0.20309    0.49748    0.48623    1.000
    C10      C        0.70309    0.25252    0.76377    1.000
    C10      C        0.26377    0.25252    0.20309    1.000
    C10      C        0.98623    0.49748    0.70309    1.000
    C10      C        0.48623    0.75252    0.04691    1.000
    C10      C        0.76377    0.99748    0.54691    1.000
    C10      C        0.70309    0.26377    0.75252    1.000
    C10      C        0.20309    0.98623    0.99748    1.000
    C10      C        0.54691    0.48623    0.25252    1.000
    C10      C        0.04691    0.76377    0.49748    1.000
    C10      C        0.25252    0.70309    0.76377    1.000
    C10      C        0.49748    0.20309    0.48623    1.000
    C10      C        0.75252    0.54691    0.98623    1.000
    C10      C        0.99748    0.04691    0.26377    1.000
    C10      C        0.50252    0.01377    0.29691    1.000
    C10      C        0.74748    0.73623    0.79691    1.000
    C10      C        0.00252    0.23623    0.45309    1.000
    C10      C        0.24748    0.51377    0.95309    1.000
    C10      C        0.51377    0.45309    0.74748    1.000
    C10      C        0.23623    0.95309    0.50252    1.000
    C10      C        0.73623    0.29691    0.24748    1.000
    C10      C        0.01377    0.79691    0.00252    1.000
    C10      C        0.95309    0.00252    0.73623    1.000
    C10      C        0.45309    0.24748    0.01377    1.000
    C10      C        0.79691    0.50252    0.51377    1.000
    C10      C        0.29691    0.74748    0.23623    1.000
    C11      C        0.52400    0.97967    0.30736    1.000
    C11      C        0.02400    0.77033    0.94264    1.000
    C11      C        0.72600    0.47967    0.44264    1.000
    C11      C        0.80736    0.22600    0.27033    1.000
    C11      C        0.30736    0.52400    0.97967    1.000
    C11      C        0.94264    0.02400    0.77033    1.000
    C11      C        0.44264    0.72600    0.47967    1.000
    C11      C        0.27033    0.80736    0.22600    1.000
    C11      C        0.97967    0.30736    0.52400    1.000
    C11      C        0.77033    0.94264    0.02400    1.000
    C11      C        0.47967    0.44264    0.72600    1.000
    C11      C        0.02033    0.47600    0.69264    1.000
    C11      C        0.72967    0.77400    0.19264    1.000
    C11      C        0.52033    0.27400    0.55736    1.000
    C11      C        0.22967    0.97600    0.05736    1.000
    C11      C        0.97600    0.05736    0.22967    1.000
    C11      C        0.27400    0.55736    0.52033    1.000
    C11      C        0.77400    0.19264    0.72967    1.000
    C11      C        0.47600    0.69264    0.02033    1.000
    C11      C        0.55736    0.52033    0.27400    1.000
    C11      C        0.05736    0.22967    0.97600    1.000
    C11      C        0.69264    0.02033    0.47600    1.000
    C11      C        0.19264    0.72967    0.77400    1.000
    C11      C        0.77400    0.72967    0.19264    1.000
    C11      C        0.47600    0.02033    0.69264    1.000
    C11      C        0.97600    0.22967    0.05736    1.000
    C11      C        0.27400    0.52033    0.55736    1.000
    C11      C        0.19264    0.77400    0.72967    1.000
    C11      C        0.69264    0.47600    0.02033    1.000
    C11      C        0.05736    0.97600    0.22967    1.000
    C11      C        0.55736    0.27400    0.52033    1.000
    C11      C        0.72967    0.19264    0.77400    1.000
    C11      C        0.02033    0.69264    0.47600    1.000
    C11      C        0.22967    0.05736    0.97600    1.000
    C11      C        0.52033    0.55736    0.27400    1.000
    C11      C        0.97967    0.52400    0.30736    1.000
    C11      C        0.27033    0.22600    0.80736    1.000
    C11      C        0.47967    0.72600    0.44264    1.000
    C11      C        0.77033    0.02400    0.94264    1.000
    C11      C        0.02400    0.94264    0.77033    1.000
    C11      C        0.72600    0.44264    0.47967    1.000
    C11      C        0.22600    0.80736    0.27033    1.000
    C11      C        0.52400    0.30736    0.97967    1.000
    C11      C        0.44264    0.47967    0.72600    1.000
    C11      C        0.94264    0.77033    0.02400    1.000
    C11      C        0.30736    0.97967    0.52400    1.000
    C11      C        0.80736    0.27033    0.22600    1.000
    C11      C        0.22600    0.77033    0.30736    1.000
    C11      C        0.52400    0.47967    0.80736    1.000
    C11      C        0.02400    0.27033    0.44264    1.000
    C11      C        0.72600    0.97967    0.94264    1.000
    C11      C        0.80736    0.72600    0.77033    1.000
    C11      C        0.30736    0.02400    0.47967    1.000
    C11      C        0.94264    0.52400    0.27033    1.000
    C11      C        0.44264    0.22600    0.97967    1.000
    C11      C        0.27033    0.30736    0.72600    1.000
    C11      C        0.97967    0.80736    0.02400    1.000
    C11      C        0.77033    0.44264    0.52400    1.000
    C11      C        0.47967    0.94264    0.22600    1.000
    C11      C        0.02033    0.97600    0.19264    1.000
    C11      C        0.72967    0.27400    0.69264    1.000
    C11      C        0.52033    0.77400    0.05736    1.000
    C11      C        0.22967    0.47600    0.55736    1.000
    C11      C        0.97600    0.55736    0.72967    1.000
    C11      C        0.27400    0.05736    0.02033    1.000
    C11      C        0.77400    0.69264    0.22967    1.000
    C11      C        0.47600    0.19264    0.52033    1.000
    C11      C        0.55736    0.02033    0.77400    1.000
    C11      C        0.05736    0.72967    0.47600    1.000
    C11      C        0.69264    0.52033    0.97600    1.000
    C11      C        0.19264    0.22967    0.27400    1.000
    C11      C        0.77400    0.22967    0.69264    1.000
    C11      C        0.47600    0.52033    0.19264    1.000
    C11      C        0.97600    0.72967    0.55736    1.000
    C11      C        0.27400    0.02033    0.05736    1.000
    C11      C        0.19264    0.27400    0.22967    1.000
    C11      C        0.69264    0.97600    0.52033    1.000
    C11      C        0.05736    0.47600    0.72967    1.000
    C11      C        0.55736    0.77400    0.02033    1.000
    C11      C        0.72967    0.69264    0.27400    1.000
    C11      C        0.02033    0.19264    0.97600    1.000
    C11      C        0.22967    0.55736    0.47600    1.000
    C11      C        0.52033    0.05736    0.77400    1.000
    C11      C        0.97967    0.02400    0.80736    1.000
    C11      C        0.27033    0.72600    0.30736    1.000
    C11      C        0.47967    0.22600    0.94264    1.000
    C11      C        0.77033    0.52400    0.44264    1.000
    C11      C        0.02400    0.44264    0.27033    1.000
    C11      C        0.72600    0.94264    0.97967    1.000
    C11      C        0.22600    0.30736    0.77033    1.000
    C11      C        0.52400    0.80736    0.47967    1.000
    C11      C        0.44264    0.97967    0.22600    1.000
    C11      C        0.94264    0.27033    0.52400    1.000
    C11      C        0.30736    0.47967    0.02400    1.000
    C11      C        0.80736    0.77033    0.72600    1.000
    C11      C        0.72600    0.27033    0.30736    1.000
    C11      C        0.02400    0.97967    0.80736    1.000
    C11      C        0.52400    0.77033    0.44264    1.000
    C11      C        0.22600    0.47967    0.94264    1.000
    C11      C        0.30736    0.22600    0.77033    1.000
    C11      C        0.80736    0.52400    0.47967    1.000
    C11      C        0.44264    0.02400    0.27033    1.000
    C11      C        0.94264    0.72600    0.97967    1.000
    C11      C        0.77033    0.80736    0.72600    1.000
    C11      C        0.47967    0.30736    0.02400    1.000
    C11      C        0.27033    0.94264    0.52400    1.000
    C11      C        0.97967    0.44264    0.22600    1.000
    C11      C        0.52033    0.47600    0.19264    1.000
    C11      C        0.22967    0.77400    0.69264    1.000
    C11      C        0.02033    0.27400    0.05736    1.000
    C11      C        0.72967    0.97600    0.55736    1.000
    C11      C        0.47600    0.05736    0.72967    1.000
    C11      C        0.77400    0.55736    0.02033    1.000
    C11      C        0.27400    0.19264    0.22967    1.000
    C11      C        0.97600    0.69264    0.52033    1.000
    C11      C        0.05736    0.52033    0.77400    1.000
    C11      C        0.55736    0.22967    0.47600    1.000
    C11      C        0.19264    0.02033    0.97600    1.000
    C11      C        0.69264    0.72967    0.27400    1.000
    C11      C        0.27400    0.72967    0.69264    1.000
    C11      C        0.97600    0.02033    0.19264    1.000
    C11      C        0.47600    0.22967    0.55736    1.000
    C11      C        0.77400    0.52033    0.05736    1.000
    C11      C        0.69264    0.77400    0.22967    1.000
    C11      C        0.19264    0.47600    0.52033    1.000
    C11      C        0.55736    0.97600    0.72967    1.000
    C11      C        0.05736    0.27400    0.02033    1.000
    C11      C        0.22967    0.19264    0.27400    1.000
    C11      C        0.52033    0.69264    0.97600    1.000
    C11      C        0.72967    0.05736    0.47600    1.000
    C11      C        0.02033    0.55736    0.77400    1.000
    C11      C        0.47967    0.52400    0.80736    1.000
    C11      C        0.77033    0.22600    0.30736    1.000
    C11      C        0.97967    0.72600    0.94264    1.000
    C11      C        0.27033    0.02400    0.44264    1.000
    C11      C        0.52400    0.94264    0.27033    1.000
    C11      C        0.22600    0.44264    0.97967    1.000
    C11      C        0.72600    0.80736    0.77033    1.000
    C11      C        0.02400    0.30736    0.47967    1.000
    C11      C        0.94264    0.47967    0.22600    1.000
    C11      C        0.44264    0.77033    0.52400    1.000
    C11      C        0.80736    0.97967    0.02400    1.000
    C11      C        0.30736    0.27033    0.72600    1.000
    C11      C        0.72600    0.77033    0.80736    1.000
    C11      C        0.02400    0.47967    0.30736    1.000
    C11      C        0.52400    0.27033    0.94264    1.000
    C11      C        0.22600    0.97967    0.44264    1.000
    C11      C        0.30736    0.72600    0.27033    1.000
    C11      C        0.80736    0.02400    0.97967    1.000
    C11      C        0.44264    0.52400    0.77033    1.000
    C11      C        0.94264    0.22600    0.47967    1.000
    C11      C        0.77033    0.30736    0.22600    1.000
    C11      C        0.47967    0.80736    0.52400    1.000
    C11      C        0.27033    0.44264    0.02400    1.000
    C11      C        0.97967    0.94264    0.72600    1.000
    C11      C        0.52033    0.97600    0.69264    1.000
    C11      C        0.22967    0.27400    0.19264    1.000
    C11      C        0.02033    0.77400    0.55736    1.000
    C11      C        0.72967    0.47600    0.05736    1.000
    C11      C        0.47600    0.55736    0.22967    1.000
    C11      C        0.77400    0.05736    0.52033    1.000
    C11      C        0.27400    0.69264    0.72967    1.000
    C11      C        0.97600    0.19264    0.02033    1.000
    C11      C        0.05736    0.02033    0.27400    1.000
    C11      C        0.55736    0.72967    0.97600    1.000
    C11      C        0.19264    0.52033    0.47600    1.000
    C11      C        0.69264    0.22967    0.77400    1.000
    C11      C        0.27400    0.22967    0.19264    1.000
    C11      C        0.97600    0.52033    0.69264    1.000
    C11      C        0.47600    0.72967    0.05736    1.000
    C11      C        0.77400    0.02033    0.55736    1.000
    C11      C        0.69264    0.27400    0.72967    1.000
    C11      C        0.19264    0.97600    0.02033    1.000
    C11      C        0.55736    0.47600    0.22967    1.000
    C11      C        0.05736    0.77400    0.52033    1.000
    C11      C        0.22967    0.69264    0.77400    1.000
    C11      C        0.52033    0.19264    0.47600    1.000
    C11      C        0.72967    0.55736    0.97600    1.000
    C11      C        0.02033    0.05736    0.27400    1.000
    C11      C        0.47967    0.02400    0.30736    1.000
    C11      C        0.77033    0.72600    0.80736    1.000
    C11      C        0.97967    0.22600    0.44264    1.000
    C11      C        0.27033    0.52400    0.94264    1.000
    C11      C        0.52400    0.44264    0.77033    1.000
    C11      C        0.22600    0.94264    0.47967    1.000
    C11      C        0.72600    0.30736    0.27033    1.000
    C11      C        0.02400    0.80736    0.97967    1.000
    C11      C        0.94264    0.97967    0.72600    1.000
    C11      C        0.44264    0.27033    0.02400    1.000
    C11      C        0.80736    0.47967    0.52400    1.000
    C11      C        0.30736    0.77033    0.22600    1.000
    C12      C        0.51245    0.99060    0.30736    1.000
    C12      C        0.01245    0.75940    0.94264    1.000
    C12      C        0.73755    0.49060    0.44264    1.000
    C12      C        0.80736    0.23755    0.25940    1.000
    C12      C        0.30736    0.51245    0.99060    1.000
    C12      C        0.94264    0.01245    0.75940    1.000
    C12      C        0.44264    0.73755    0.49060    1.000
    C12      C        0.25940    0.80736    0.23755    1.000
    C12      C        0.99060    0.30736    0.51245    1.000
    C12      C        0.75940    0.94264    0.01245    1.000
    C12      C        0.49060    0.44264    0.73755    1.000
    C12      C        0.00940    0.48755    0.69264    1.000
    C12      C        0.74060    0.76245    0.19264    1.000
    C12      C        0.50940    0.26245    0.55736    1.000
    C12      C        0.24060    0.98755    0.05736    1.000
    C12      C        0.98755    0.05736    0.24060    1.000
    C12      C        0.26245    0.55736    0.50940    1.000
    C12      C        0.76245    0.19264    0.74060    1.000
    C12      C        0.48755    0.69264    0.00940    1.000
    C12      C        0.55736    0.50940    0.26245    1.000
    C12      C        0.05736    0.24060    0.98755    1.000
    C12      C        0.69264    0.00940    0.48755    1.000
    C12      C        0.19264    0.74060    0.76245    1.000
    C12      C        0.76245    0.74060    0.19264    1.000
    C12      C        0.48755    0.00940    0.69264    1.000
    C12      C        0.98755    0.24060    0.05736    1.000
    C12      C        0.26245    0.50940    0.55736    1.000
    C12      C        0.19264    0.76245    0.74060    1.000
    C12      C        0.69264    0.48755    0.00940    1.000
    C12      C        0.05736    0.98755    0.24060    1.000
    C12      C        0.55736    0.26245    0.50940    1.000
    C12      C        0.74060    0.19264    0.76245    1.000
    C12      C        0.00940    0.69264    0.48755    1.000
    C12      C        0.24060    0.05736    0.98755    1.000
    C12      C        0.50940    0.55736    0.26245    1.000
    C12      C        0.99060    0.51245    0.30736    1.000
    C12      C        0.25940    0.23755    0.80736    1.000
    C12      C        0.49060    0.73755    0.44264    1.000
    C12      C        0.75940    0.01245    0.94264    1.000
    C12      C        0.01245    0.94264    0.75940    1.000
    C12      C        0.73755    0.44264    0.49060    1.000
    C12      C        0.23755    0.80736    0.25940    1.000
    C12      C        0.51245    0.30736    0.99060    1.000
    C12      C        0.44264    0.49060    0.73755    1.000
    C12      C        0.94264    0.75940    0.01245    1.000
    C12      C        0.30736    0.99060    0.51245    1.000
    C12      C        0.80736    0.25940    0.23755    1.000
    C12      C        0.23755    0.75940    0.30736    1.000
    C12      C        0.51245    0.49060    0.80736    1.000
    C12      C        0.01245    0.25940    0.44264    1.000
    C12      C        0.73755    0.99060    0.94264    1.000
    C12      C        0.80736    0.73755    0.75940    1.000
    C12      C        0.30736    0.01245    0.49060    1.000
    C12      C        0.94264    0.51245    0.25940    1.000
    C12      C        0.44264    0.23755    0.99060    1.000
    C12      C        0.25940    0.30736    0.73755    1.000
    C12      C        0.99060    0.80736    0.01245    1.000
    C12      C        0.75940    0.44264    0.51245    1.000
    C12      C        0.49060    0.94264    0.23755    1.000
    C12      C        0.00940    0.98755    0.19264    1.000
    C12      C        0.74060    0.26245    0.69264    1.000
    C12      C        0.50940    0.76245    0.05736    1.000
    C12      C        0.24060    0.48755    0.55736    1.000
    C12      C        0.98755    0.55736    0.74060    1.000
    C12      C        0.26245    0.05736    0.00940    1.000
    C12      C        0.76245    0.69264    0.24060    1.000
    C12      C        0.48755    0.19264    0.50940    1.000
    C12      C        0.55736    0.00940    0.76245    1.000
    C12      C        0.05736    0.74060    0.48755    1.000
    C12      C        0.69264    0.50940    0.98755    1.000
    C12      C        0.19264    0.24060    0.26245    1.000
    C12      C        0.76245    0.24060    0.69264    1.000
    C12      C        0.48755    0.50940    0.19264    1.000
    C12      C        0.98755    0.74060    0.55736    1.000
    C12      C        0.26245    0.00940    0.05736    1.000
    C12      C        0.19264    0.26245    0.24060    1.000
    C12      C        0.69264    0.98755    0.50940    1.000
    C12      C        0.05736    0.48755    0.74060    1.000
    C12      C        0.55736    0.76245    0.00940    1.000
    C12      C        0.74060    0.69264    0.26245    1.000
    C12      C        0.00940    0.19264    0.98755    1.000
    C12      C        0.24060    0.55736    0.48755    1.000
    C12      C        0.50940    0.05736    0.76245    1.000
    C12      C        0.99060    0.01245    0.80736    1.000
    C12      C        0.25940    0.73755    0.30736    1.000
    C12      C        0.49060    0.23755    0.94264    1.000
    C12      C        0.75940    0.51245    0.44264    1.000
    C12      C        0.01245    0.44264    0.25940    1.000
    C12      C        0.73755    0.94264    0.99060    1.000
    C12      C        0.23755    0.30736    0.75940    1.000
    C12      C        0.51245    0.80736    0.49060    1.000
    C12      C        0.44264    0.99060    0.23755    1.000
    C12      C        0.94264    0.25940    0.51245    1.000
    C12      C        0.30736    0.49060    0.01245    1.000
    C12      C        0.80736    0.75940    0.73755    1.000
    C12      C        0.73755    0.25940    0.30736    1.000
    C12      C        0.01245    0.99060    0.80736    1.000
    C12      C        0.51245    0.75940    0.44264    1.000
    C12      C        0.23755    0.49060    0.94264    1.000
    C12      C        0.30736    0.23755    0.75940    1.000
    C12      C        0.80736    0.51245    0.49060    1.000
    C12      C        0.44264    0.01245    0.25940    1.000
    C12      C        0.94264    0.73755    0.99060    1.000
    C12      C        0.75940    0.80736    0.73755    1.000
    C12      C        0.49060    0.30736    0.01245    1.000
    C12      C        0.25940    0.94264    0.51245    1.000
    C12      C        0.99060    0.44264    0.23755    1.000
    C12      C        0.50940    0.48755    0.19264    1.000
    C12      C        0.24060    0.76245    0.69264    1.000
    C12      C        0.00940    0.26245    0.05736    1.000
    C12      C        0.74060    0.98755    0.55736    1.000
    C12      C        0.48755    0.05736    0.74060    1.000
    C12      C        0.76245    0.55736    0.00940    1.000
    C12      C        0.26245    0.19264    0.24060    1.000
    C12      C        0.98755    0.69264    0.50940    1.000
    C12      C        0.05736    0.50940    0.76245    1.000
    C12      C        0.55736    0.24060    0.48755    1.000
    C12      C        0.19264    0.00940    0.98755    1.000
    C12      C        0.69264    0.74060    0.26245    1.000
    C12      C        0.26245    0.74060    0.69264    1.000
    C12      C        0.98755    0.00940    0.19264    1.000
    C12      C        0.48755    0.24060    0.55736    1.000
    C12      C        0.76245    0.50940    0.05736    1.000
    C12      C        0.69264    0.76245    0.24060    1.000
    C12      C        0.19264    0.48755    0.50940    1.000
    C12      C        0.55736    0.98755    0.74060    1.000
    C12      C        0.05736    0.26245    0.00940    1.000
    C12      C        0.24060    0.19264    0.26245    1.000
    C12      C        0.50940    0.69264    0.98755    1.000
    C12      C        0.74060    0.05736    0.48755    1.000
    C12      C        0.00940    0.55736    0.76245    1.000
    C12      C        0.49060    0.51245    0.80736    1.000
    C12      C        0.75940    0.23755    0.30736    1.000
    C12      C        0.99060    0.73755    0.94264    1.000
    C12      C        0.25940    0.01245    0.44264    1.000
    C12      C        0.51245    0.94264    0.25940    1.000
    C12      C        0.23755    0.44264    0.99060    1.000
    C12      C        0.73755    0.80736    0.75940    1.000
    C12      C        0.01245    0.30736    0.49060    1.000
    C12      C        0.94264    0.49060    0.23755    1.000
    C12      C        0.44264    0.75940    0.51245    1.000
    C12      C        0.80736    0.99060    0.01245    1.000
    C12      C        0.30736    0.25940    0.73755    1.000
    C12      C        0.73755    0.75940    0.80736    1.000
    C12      C        0.01245    0.49060    0.30736    1.000
    C12      C        0.51245    0.25940    0.94264    1.000
    C12      C        0.23755    0.99060    0.44264    1.000
    C12      C        0.30736    0.73755    0.25940    1.000
    C12      C        0.80736    0.01245    0.99060    1.000
    C12      C        0.44264    0.51245    0.75940    1.000
    C12      C        0.94264    0.23755    0.49060    1.000
    C12      C        0.75940    0.30736    0.23755    1.000
    C12      C        0.49060    0.80736    0.51245    1.000
    C12      C        0.25940    0.44264    0.01245    1.000
    C12      C        0.99060    0.94264    0.73755    1.000
    C12      C        0.50940    0.98755    0.69264    1.000
    C12      C        0.24060    0.26245    0.19264    1.000
    C12      C        0.00940    0.76245    0.55736    1.000
    C12      C        0.74060    0.48755    0.05736    1.000
    C12      C        0.48755    0.55736    0.24060    1.000
    C12      C        0.76245    0.05736    0.50940    1.000
    C12      C        0.26245    0.69264    0.74060    1.000
    C12      C        0.98755    0.19264    0.00940    1.000
    C12      C        0.05736    0.00940    0.26245    1.000
    C12      C        0.55736    0.74060    0.98755    1.000
    C12      C        0.19264    0.50940    0.48755    1.000
    C12      C        0.69264    0.24060    0.76245    1.000
    C12      C        0.26245    0.24060    0.19264    1.000
    C12      C        0.98755    0.50940    0.69264    1.000
    C12      C        0.48755    0.74060    0.05736    1.000
    C12      C        0.76245    0.00940    0.55736    1.000
    C12      C        0.69264    0.26245    0.74060    1.000
    C12      C        0.19264    0.98755    0.00940    1.000
    C12      C        0.55736    0.48755    0.24060    1.000
    C12      C        0.05736    0.76245    0.50940    1.000
    C12      C        0.24060    0.69264    0.76245    1.000
    C12      C        0.50940    0.19264    0.48755    1.000
    C12      C        0.74060    0.55736    0.98755    1.000
    C12      C        0.00940    0.05736    0.26245    1.000
    C12      C        0.49060    0.01245    0.30736    1.000
    C12      C        0.75940    0.73755    0.80736    1.000
    C12      C        0.99060    0.23755    0.44264    1.000
    C12      C        0.25940    0.51245    0.94264    1.000
    C12      C        0.51245    0.44264    0.75940    1.000
    C12      C        0.23755    0.94264    0.49060    1.000
    C12      C        0.73755    0.30736    0.25940    1.000
    C12      C        0.01245    0.80736    0.99060    1.000
    C12      C        0.94264    0.99060    0.73755    1.000
    C12      C        0.44264    0.25940    0.01245    1.000
    C12      C        0.80736    0.49060    0.51245    1.000
    C12      C        0.30736    0.75940    0.23755    1.000
    C13      C        0.50494    0.99368    0.32141    1.000
    C13      C        0.00494    0.75632    0.92859    1.000
    C13      C        0.74506    0.49368    0.42859    1.000
    C13      C        0.82141    0.24506    0.25632    1.000
    C13      C        0.32141    0.50494    0.99368    1.000
    C13      C        0.92859    0.00494    0.75632    1.000
    C13      C        0.42859    0.74506    0.49368    1.000
    C13      C        0.25632    0.82141    0.24506    1.000
    C13      C        0.99368    0.32141    0.50494    1.000
    C13      C        0.75632    0.92859    0.00494    1.000
    C13      C        0.49368    0.42859    0.74506    1.000
    C13      C        0.00632    0.49506    0.67859    1.000
    C13      C        0.74368    0.75494    0.17859    1.000
    C13      C        0.50632    0.25494    0.57141    1.000
    C13      C        0.24368    0.99506    0.07141    1.000
    C13      C        0.99506    0.07141    0.24368    1.000
    C13      C        0.25494    0.57141    0.50632    1.000
    C13      C        0.75494    0.17859    0.74368    1.000
    C13      C        0.49506    0.67859    0.00632    1.000
    C13      C        0.57141    0.50632    0.25494    1.000
    C13      C        0.07141    0.24368    0.99506    1.000
    C13      C        0.67859    0.00632    0.49506    1.000
    C13      C        0.17859    0.74368    0.75494    1.000
    C13      C        0.75494    0.74368    0.17859    1.000
    C13      C        0.49506    0.00632    0.67859    1.000
    C13      C        0.99506    0.24368    0.07141    1.000
    C13      C        0.25494    0.50632    0.57141    1.000
    C13      C        0.17859    0.75494    0.74368    1.000
    C13      C        0.67859    0.49506    0.00632    1.000
    C13      C        0.07141    0.99506    0.24368    1.000
    C13      C        0.57141    0.25494    0.50632    1.000
    C13      C        0.74368    0.17859    0.75494    1.000
    C13      C        0.00632    0.67859    0.49506    1.000
    C13      C        0.24368    0.07141    0.99506    1.000
    C13      C        0.50632    0.57141    0.25494    1.000
    C13      C        0.99368    0.50494    0.32141    1.000
    C13      C        0.25632    0.24506    0.82141    1.000
    C13      C        0.49368    0.74506    0.42859    1.000
    C13      C        0.75632    0.00494    0.92859    1.000
    C13      C        0.00494    0.92859    0.75632    1.000
    C13      C        0.74506    0.42859    0.49368    1.000
    C13      C        0.24506    0.82141    0.25632    1.000
    C13      C        0.50494    0.32141    0.99368    1.000
    C13      C        0.42859    0.49368    0.74506    1.000
    C13      C        0.92859    0.75632    0.00494    1.000
    C13      C        0.32141    0.99368    0.50494    1.000
    C13      C        0.82141    0.25632    0.24506    1.000
    C13      C        0.24506    0.75632    0.32141    1.000
    C13      C        0.50494    0.49368    0.82141    1.000
    C13      C        0.00494    0.25632    0.42859    1.000
    C13      C        0.74506    0.99368    0.92859    1.000
    C13      C        0.82141    0.74506    0.75632    1.000
    C13      C        0.32141    0.00494    0.49368    1.000
    C13      C        0.92859    0.50494    0.25632    1.000
    C13      C        0.42859    0.24506    0.99368    1.000
    C13      C        0.25632    0.32141    0.74506    1.000
    C13      C        0.99368    0.82141    0.00494    1.000
    C13      C        0.75632    0.42859    0.50494    1.000
    C13      C        0.49368    0.92859    0.24506    1.000
    C13      C        0.00632    0.99506    0.17859    1.000
    C13      C        0.74368    0.25494    0.67859    1.000
    C13      C        0.50632    0.75494    0.07141    1.000
    C13      C        0.24368    0.49506    0.57141    1.000
    C13      C        0.99506    0.57141    0.74368    1.000
    C13      C        0.25494    0.07141    0.00632    1.000
    C13      C        0.75494    0.67859    0.24368    1.000
    C13      C        0.49506    0.17859    0.50632    1.000
    C13      C        0.57141    0.00632    0.75494    1.000
    C13      C        0.07141    0.74368    0.49506    1.000
    C13      C        0.67859    0.50632    0.99506    1.000
    C13      C        0.17859    0.24368    0.25494    1.000
    C13      C        0.75494    0.24368    0.67859    1.000
    C13      C        0.49506    0.50632    0.17859    1.000
    C13      C        0.99506    0.74368    0.57141    1.000
    C13      C        0.25494    0.00632    0.07141    1.000
    C13      C        0.17859    0.25494    0.24368    1.000
    C13      C        0.67859    0.99506    0.50632    1.000
    C13      C        0.07141    0.49506    0.74368    1.000
    C13      C        0.57141    0.75494    0.00632    1.000
    C13      C        0.74368    0.67859    0.25494    1.000
    C13      C        0.00632    0.17859    0.99506    1.000
    C13      C        0.24368    0.57141    0.49506    1.000
    C13      C        0.50632    0.07141    0.75494    1.000
    C13      C        0.99368    0.00494    0.82141    1.000
    C13      C        0.25632    0.74506    0.32141    1.000
    C13      C        0.49368    0.24506    0.92859    1.000
    C13      C        0.75632    0.50494    0.42859    1.000
    C13      C        0.00494    0.42859    0.25632    1.000
    C13      C        0.74506    0.92859    0.99368    1.000
    C13      C        0.24506    0.32141    0.75632    1.000
    C13      C        0.50494    0.82141    0.49368    1.000
    C13      C        0.42859    0.99368    0.24506    1.000
    C13      C        0.92859    0.25632    0.50494    1.000
    C13      C        0.32141    0.49368    0.00494    1.000
    C13      C        0.82141    0.75632    0.74506    1.000
    C13      C        0.74506    0.25632    0.32141    1.000
    C13      C        0.00494    0.99368    0.82141    1.000
    C13      C        0.50494    0.75632    0.42859    1.000
    C13      C        0.24506    0.49368    0.92859    1.000
    C13      C        0.32141    0.24506    0.75632    1.000
    C13      C        0.82141    0.50494    0.49368    1.000
    C13      C        0.42859    0.00494    0.25632    1.000
    C13      C        0.92859    0.74506    0.99368    1.000
    C13      C        0.75632    0.82141    0.74506    1.000
    C13      C        0.49368    0.32141    0.00494    1.000
    C13      C        0.25632    0.92859    0.50494    1.000
    C13      C        0.99368    0.42859    0.24506    1.000
    C13      C        0.50632    0.49506    0.17859    1.000
    C13      C        0.24368    0.75494    0.67859    1.000
    C13      C        0.00632    0.25494    0.07141    1.000
    C13      C        0.74368    0.99506    0.57141    1.000
    C13      C        0.49506    0.07141    0.74368    1.000
    C13      C        0.75494    0.57141    0.00632    1.000
    C13      C        0.25494    0.17859    0.24368    1.000
    C13      C        0.99506    0.67859    0.50632    1.000
    C13      C        0.07141    0.50632    0.75494    1.000
    C13      C        0.57141    0.24368    0.49506    1.000
    C13      C        0.17859    0.00632    0.99506    1.000
    C13      C        0.67859    0.74368    0.25494    1.000
    C13      C        0.25494    0.74368    0.67859    1.000
    C13      C        0.99506    0.00632    0.17859    1.000
    C13      C        0.49506    0.24368    0.57141    1.000
    C13      C        0.75494    0.50632    0.07141    1.000
    C13      C        0.67859    0.75494    0.24368    1.000
    C13      C        0.17859    0.49506    0.50632    1.000
    C13      C        0.57141    0.99506    0.74368    1.000
    C13      C        0.07141    0.25494    0.00632    1.000
    C13      C        0.24368    0.17859    0.25494    1.000
    C13      C        0.50632    0.67859    0.99506    1.000
    C13      C        0.74368    0.07141    0.49506    1.000
    C13      C        0.00632    0.57141    0.75494    1.000
    C13      C        0.49368    0.50494    0.82141    1.000
    C13      C        0.75632    0.24506    0.32141    1.000
    C13      C        0.99368    0.74506    0.92859    1.000
    C13      C        0.25632    0.00494    0.42859    1.000
    C13      C        0.50494    0.92859    0.25632    1.000
    C13      C        0.24506    0.42859    0.99368    1.000
    C13      C        0.74506    0.82141    0.75632    1.000
    C13      C        0.00494    0.32141    0.49368    1.000
    C13      C        0.92859    0.49368    0.24506    1.000
    C13      C        0.42859    0.75632    0.50494    1.000
    C13      C        0.82141    0.99368    0.00494    1.000
    C13      C        0.32141    0.25632    0.74506    1.000
    C13      C        0.74506    0.75632    0.82141    1.000
    C13      C        0.00494    0.49368    0.32141    1.000
    C13      C        0.50494    0.25632    0.92859    1.000
    C13      C        0.24506    0.99368    0.42859    1.000
    C13      C        0.32141    0.74506    0.25632    1.000
    C13      C        0.82141    0.00494    0.99368    1.000
    C13      C        0.42859    0.50494    0.75632    1.000
    C13      C        0.92859    0.24506    0.49368    1.000
    C13      C        0.75632    0.32141    0.24506    1.000
    C13      C        0.49368    0.82141    0.50494    1.000
    C13      C        0.25632    0.42859    0.00494    1.000
    C13      C        0.99368    0.92859    0.74506    1.000
    C13      C        0.50632    0.99506    0.67859    1.000
    C13      C        0.24368    0.25494    0.17859    1.000
    C13      C        0.00632    0.75494    0.57141    1.000
    C13      C        0.74368    0.49506    0.07141    1.000
    C13      C        0.49506    0.57141    0.24368    1.000
    C13      C        0.75494    0.07141    0.50632    1.000
    C13      C        0.25494    0.67859    0.74368    1.000
    C13      C        0.99506    0.17859    0.00632    1.000
    C13      C        0.07141    0.00632    0.25494    1.000
    C13      C        0.57141    0.74368    0.99506    1.000
    C13      C        0.17859    0.50632    0.49506    1.000
    C13      C        0.67859    0.24368    0.75494    1.000
    C13      C        0.25494    0.24368    0.17859    1.000
    C13      C        0.99506    0.50632    0.67859    1.000
    C13      C        0.49506    0.74368    0.07141    1.000
    C13      C        0.75494    0.00632    0.57141    1.000
    C13      C        0.67859    0.25494    0.74368    1.000
    C13      C        0.17859    0.99506    0.00632    1.000
    C13      C        0.57141    0.49506    0.24368    1.000
    C13      C        0.07141    0.75494    0.50632    1.000
    C13      C        0.24368    0.67859    0.75494    1.000
    C13      C        0.50632    0.17859    0.49506    1.000
    C13      C        0.74368    0.57141    0.99506    1.000
    C13      C        0.00632    0.07141    0.25494    1.000
    C13      C        0.49368    0.00494    0.32141    1.000
    C13      C        0.75632    0.74506    0.82141    1.000
    C13      C        0.99368    0.24506    0.42859    1.000
    C13      C        0.25632    0.50494    0.92859    1.000
    C13      C        0.50494    0.42859    0.75632    1.000
    C13      C        0.24506    0.92859    0.49368    1.000
    C13      C        0.74506    0.32141    0.25632    1.000
    C13      C        0.00494    0.82141    0.99368    1.000
    C13      C        0.92859    0.99368    0.74506    1.000
    C13      C        0.42859    0.25632    0.00494    1.000
    C13      C        0.82141    0.49368    0.50494    1.000
    C13      C        0.32141    0.75632    0.24506    1.000
    C14      C        0.67816    0.30231    0.95923    1.000
    C14      C        0.17816    0.44769    0.29077    1.000
    C14      C        0.57184    0.80231    0.79077    1.000
    C14      C        0.45923    0.07184    0.94769    1.000
    C14      C        0.95923    0.67816    0.30231    1.000
    C14      C        0.29077    0.17816    0.44769    1.000
    C14      C        0.79077    0.57184    0.80231    1.000
    C14      C        0.94769    0.45923    0.07184    1.000
    C14      C        0.30231    0.95923    0.67816    1.000
    C14      C        0.44769    0.29077    0.17816    1.000
    C14      C        0.80231    0.79077    0.57184    1.000
    C14      C        0.69769    0.32184    0.04077    1.000
    C14      C        0.05231    0.92816    0.54077    1.000
    C14      C        0.19769    0.42816    0.20923    1.000
    C14      C        0.55231    0.82184    0.70923    1.000
    C14      C        0.82184    0.70923    0.55231    1.000
    C14      C        0.42816    0.20923    0.19769    1.000
    C14      C        0.92816    0.54077    0.05231    1.000
    C14      C        0.32184    0.04077    0.69769    1.000
    C14      C        0.20923    0.19769    0.42816    1.000
    C14      C        0.70923    0.55231    0.82184    1.000
    C14      C        0.04077    0.69769    0.32184    1.000
    C14      C        0.54077    0.05231    0.92816    1.000
    C14      C        0.92816    0.05231    0.54077    1.000
    C14      C        0.32184    0.69769    0.04077    1.000
    C14      C        0.82184    0.55231    0.70923    1.000
    C14      C        0.42816    0.19769    0.20923    1.000
    C14      C        0.54077    0.92816    0.05231    1.000
    C14      C        0.04077    0.32184    0.69769    1.000
    C14      C        0.70923    0.82184    0.55231    1.000
    C14      C        0.20923    0.42816    0.19769    1.000
    C14      C        0.05231    0.54077    0.92816    1.000
    C14      C        0.69769    0.04077    0.32184    1.000
    C14      C        0.55231    0.70923    0.82184    1.000
    C14      C        0.19769    0.20923    0.42816    1.000
    C14      C        0.30231    0.67816    0.95923    1.000
    C14      C        0.94769    0.07184    0.45923    1.000
    C14      C        0.80231    0.57184    0.79077    1.000
    C14      C        0.44769    0.17816    0.29077    1.000
    C14      C        0.17816    0.29077    0.44769    1.000
    C14      C        0.57184    0.79077    0.80231    1.000
    C14      C        0.07184    0.45923    0.94769    1.000
    C14      C        0.67816    0.95923    0.30231    1.000
    C14      C        0.79077    0.80231    0.57184    1.000
    C14      C        0.29077    0.44769    0.17816    1.000
    C14      C        0.95923    0.30231    0.67816    1.000
    C14      C        0.45923    0.94769    0.07184    1.000
    C14      C        0.07184    0.44769    0.95923    1.000
    C14      C        0.67816    0.80231    0.45923    1.000
    C14      C        0.17816    0.94769    0.79077    1.000
    C14      C        0.57184    0.30231    0.29077    1.000
    C14      C        0.45923    0.57184    0.44769    1.000
    C14      C        0.95923    0.17816    0.80231    1.000
    C14      C        0.29077    0.67816    0.94769    1.000
    C14      C        0.79077    0.07184    0.30231    1.000
    C14      C        0.94769    0.95923    0.57184    1.000
    C14      C        0.30231    0.45923    0.17816    1.000
    C14      C        0.44769    0.79077    0.67816    1.000
    C14      C        0.80231    0.29077    0.07184    1.000
    C14      C        0.69769    0.82184    0.54077    1.000
    C14      C        0.05231    0.42816    0.04077    1.000
    C14      C        0.19769    0.92816    0.70923    1.000
    C14      C        0.55231    0.32184    0.20923    1.000
    C14      C        0.82184    0.20923    0.05231    1.000
    C14      C        0.42816    0.70923    0.69769    1.000
    C14      C        0.92816    0.04077    0.55231    1.000
    C14      C        0.32184    0.54077    0.19769    1.000
    C14      C        0.20923    0.69769    0.92816    1.000
    C14      C        0.70923    0.05231    0.32184    1.000
    C14      C        0.04077    0.19769    0.82184    1.000
    C14      C        0.54077    0.55231    0.42816    1.000
    C14      C        0.92816    0.55231    0.04077    1.000
    C14      C        0.32184    0.19769    0.54077    1.000
    C14      C        0.82184    0.05231    0.20923    1.000
    C14      C        0.42816    0.69769    0.70923    1.000
    C14      C        0.54077    0.42816    0.55231    1.000
    C14      C        0.04077    0.82184    0.19769    1.000
    C14      C        0.70923    0.32184    0.05231    1.000
    C14      C        0.20923    0.92816    0.69769    1.000
    C14      C        0.05231    0.04077    0.42816    1.000
    C14      C        0.69769    0.54077    0.82184    1.000
    C14      C        0.55231    0.20923    0.32184    1.000
    C14      C        0.19769    0.70923    0.92816    1.000
    C14      C        0.30231    0.17816    0.45923    1.000
    C14      C        0.94769    0.57184    0.95923    1.000
    C14      C        0.80231    0.07184    0.29077    1.000
    C14      C        0.44769    0.67816    0.79077    1.000
    C14      C        0.17816    0.79077    0.94769    1.000
    C14      C        0.57184    0.29077    0.30231    1.000
    C14      C        0.07184    0.95923    0.44769    1.000
    C14      C        0.67816    0.45923    0.80231    1.000
    C14      C        0.79077    0.30231    0.07184    1.000
    C14      C        0.29077    0.94769    0.67816    1.000
    C14      C        0.95923    0.80231    0.17816    1.000
    C14      C        0.45923    0.44769    0.57184    1.000
    C14      C        0.57184    0.94769    0.95923    1.000
    C14      C        0.17816    0.30231    0.45923    1.000
    C14      C        0.67816    0.44769    0.79077    1.000
    C14      C        0.07184    0.80231    0.29077    1.000
    C14      C        0.95923    0.07184    0.44769    1.000
    C14      C        0.45923    0.67816    0.80231    1.000
    C14      C        0.79077    0.17816    0.94769    1.000
    C14      C        0.29077    0.57184    0.30231    1.000
    C14      C        0.44769    0.45923    0.57184    1.000
    C14      C        0.80231    0.95923    0.17816    1.000
    C14      C        0.94769    0.29077    0.67816    1.000
    C14      C        0.30231    0.79077    0.07184    1.000
    C14      C        0.19769    0.32184    0.54077    1.000
    C14      C        0.55231    0.92816    0.04077    1.000
    C14      C        0.69769    0.42816    0.70923    1.000
    C14      C        0.05231    0.82184    0.20923    1.000
    C14      C        0.32184    0.70923    0.05231    1.000
    C14      C        0.92816    0.20923    0.69769    1.000
    C14      C        0.42816    0.54077    0.55231    1.000
    C14      C        0.82184    0.04077    0.19769    1.000
    C14      C        0.70923    0.19769    0.92816    1.000
    C14      C        0.20923    0.55231    0.32184    1.000
    C14      C        0.54077    0.69769    0.82184    1.000
    C14      C        0.04077    0.05231    0.42816    1.000
    C14      C        0.42816    0.05231    0.04077    1.000
    C14      C        0.82184    0.69769    0.54077    1.000
    C14      C        0.32184    0.55231    0.20923    1.000
    C14      C        0.92816    0.19769    0.70923    1.000
    C14      C        0.04077    0.92816    0.55231    1.000
    C14      C        0.54077    0.32184    0.19769    1.000
    C14      C        0.20923    0.82184    0.05231    1.000
    C14      C        0.70923    0.42816    0.69769    1.000
    C14      C        0.55231    0.54077    0.42816    1.000
    C14      C        0.19769    0.04077    0.82184    1.000
    C14      C        0.05231    0.70923    0.32184    1.000
    C14      C        0.69769    0.20923    0.92816    1.000
    C14      C        0.80231    0.67816    0.45923    1.000
    C14      C        0.44769    0.07184    0.95923    1.000
    C14      C        0.30231    0.57184    0.29077    1.000
    C14      C        0.94769    0.17816    0.79077    1.000
    C14      C        0.67816    0.29077    0.94769    1.000
    C14      C        0.07184    0.79077    0.30231    1.000
    C14      C        0.57184    0.45923    0.44769    1.000
    C14      C        0.17816    0.95923    0.80231    1.000
    C14      C        0.29077    0.80231    0.07184    1.000
    C14      C        0.79077    0.44769    0.67816    1.000
    C14      C        0.45923    0.30231    0.17816    1.000
    C14      C        0.95923    0.94769    0.57184    1.000
    C14      C        0.57184    0.44769    0.45923    1.000
    C14      C        0.17816    0.80231    0.95923    1.000
    C14      C        0.67816    0.94769    0.29077    1.000
    C14      C        0.07184    0.30231    0.79077    1.000
    C14      C        0.95923    0.57184    0.94769    1.000
    C14      C        0.45923    0.17816    0.30231    1.000
    C14      C        0.79077    0.67816    0.44769    1.000
    C14      C        0.29077    0.07184    0.80231    1.000
    C14      C        0.44769    0.95923    0.07184    1.000
    C14      C        0.80231    0.45923    0.67816    1.000
    C14      C        0.94769    0.79077    0.17816    1.000
    C14      C        0.30231    0.29077    0.57184    1.000
    C14      C        0.19769    0.82184    0.04077    1.000
    C14      C        0.55231    0.42816    0.54077    1.000
    C14      C        0.69769    0.92816    0.20923    1.000
    C14      C        0.05231    0.32184    0.70923    1.000
    C14      C        0.32184    0.20923    0.55231    1.000
    C14      C        0.92816    0.70923    0.19769    1.000
    C14      C        0.42816    0.04077    0.05231    1.000
    C14      C        0.82184    0.54077    0.69769    1.000
    C14      C        0.70923    0.69769    0.42816    1.000
    C14      C        0.20923    0.05231    0.82184    1.000
    C14      C        0.54077    0.19769    0.32184    1.000
    C14      C        0.04077    0.55231    0.92816    1.000
    C14      C        0.42816    0.55231    0.54077    1.000
    C14      C        0.82184    0.19769    0.04077    1.000
    C14      C        0.32184    0.05231    0.70923    1.000
    C14      C        0.92816    0.69769    0.20923    1.000
    C14      C        0.04077    0.42816    0.05231    1.000
    C14      C        0.54077    0.82184    0.69769    1.000
    C14      C        0.20923    0.32184    0.55231    1.000
    C14      C        0.70923    0.92816    0.19769    1.000
    C14      C        0.55231    0.04077    0.92816    1.000
    C14      C        0.19769    0.54077    0.32184    1.000
    C14      C        0.05231    0.20923    0.82184    1.000
    C14      C        0.69769    0.70923    0.42816    1.000
    C14      C        0.80231    0.17816    0.95923    1.000
    C14      C        0.44769    0.57184    0.45923    1.000
    C14      C        0.30231    0.07184    0.79077    1.000
    C14      C        0.94769    0.67816    0.29077    1.000
    C14      C        0.67816    0.79077    0.44769    1.000
    C14      C        0.07184    0.29077    0.80231    1.000
    C14      C        0.57184    0.95923    0.94769    1.000
    C14      C        0.17816    0.45923    0.30231    1.000
    C14      C        0.29077    0.30231    0.57184    1.000
    C14      C        0.79077    0.94769    0.17816    1.000
    C14      C        0.45923    0.80231    0.67816    1.000
    C14      C        0.95923    0.44769    0.07184    1.000
    C15      C        0.66978    0.31130    0.98456    1.000
    C15      C        0.16978    0.43870    0.26544    1.000
    C15      C        0.58022    0.81130    0.76544    1.000
    C15      C        0.48456    0.08022    0.93870    1.000
    C15      C        0.98456    0.66978    0.31130    1.000
    C15      C        0.26544    0.16978    0.43870    1.000
    C15      C        0.76544    0.58022    0.81130    1.000
    C15      C        0.93870    0.48456    0.08022    1.000
    C15      C        0.31130    0.98456    0.66978    1.000
    C15      C        0.43870    0.26544    0.16978    1.000
    C15      C        0.81130    0.76544    0.58022    1.000
    C15      C        0.68870    0.33022    0.01544    1.000
    C15      C        0.06130    0.91978    0.51544    1.000
    C15      C        0.18870    0.41978    0.23456    1.000
    C15      C        0.56130    0.83022    0.73456    1.000
    C15      C        0.83022    0.73456    0.56130    1.000
    C15      C        0.41978    0.23456    0.18870    1.000
    C15      C        0.91978    0.51544    0.06130    1.000
    C15      C        0.33022    0.01544    0.68870    1.000
    C15      C        0.23456    0.18870    0.41978    1.000
    C15      C        0.73456    0.56130    0.83022    1.000
    C15      C        0.01544    0.68870    0.33022    1.000
    C15      C        0.51544    0.06130    0.91978    1.000
    C15      C        0.91978    0.06130    0.51544    1.000
    C15      C        0.33022    0.68870    0.01544    1.000
    C15      C        0.83022    0.56130    0.73456    1.000
    C15      C        0.41978    0.18870    0.23456    1.000
    C15      C        0.51544    0.91978    0.06130    1.000
    C15      C        0.01544    0.33022    0.68870    1.000
    C15      C        0.73456    0.83022    0.56130    1.000
    C15      C        0.23456    0.41978    0.18870    1.000
    C15      C        0.06130    0.51544    0.91978    1.000
    C15      C        0.68870    0.01544    0.33022    1.000
    C15      C        0.56130    0.73456    0.83022    1.000
    C15      C        0.18870    0.23456    0.41978    1.000
    C15      C        0.31130    0.66978    0.98456    1.000
    C15      C        0.93870    0.08022    0.48456    1.000
    C15      C        0.81130    0.58022    0.76544    1.000
    C15      C        0.43870    0.16978    0.26544    1.000
    C15      C        0.16978    0.26544    0.43870    1.000
    C15      C        0.58022    0.76544    0.81130    1.000
    C15      C        0.08022    0.48456    0.93870    1.000
    C15      C        0.66978    0.98456    0.31130    1.000
    C15      C        0.76544    0.81130    0.58022    1.000
    C15      C        0.26544    0.43870    0.16978    1.000
    C15      C        0.98456    0.31130    0.66978    1.000
    C15      C        0.48456    0.93870    0.08022    1.000
    C15      C        0.08022    0.43870    0.98456    1.000
    C15      C        0.66978    0.81130    0.48456    1.000
    C15      C        0.16978    0.93870    0.76544    1.000
    C15      C        0.58022    0.31130    0.26544    1.000
    C15      C        0.48456    0.58022    0.43870    1.000
    C15      C        0.98456    0.16978    0.81130    1.000
    C15      C        0.26544    0.66978    0.93870    1.000
    C15      C        0.76544    0.08022    0.31130    1.000
    C15      C        0.93870    0.98456    0.58022    1.000
    C15      C        0.31130    0.48456    0.16978    1.000
    C15      C        0.43870    0.76544    0.66978    1.000
    C15      C        0.81130    0.26544    0.08022    1.000
    C15      C        0.68870    0.83022    0.51544    1.000
    C15      C        0.06130    0.41978    0.01544    1.000
    C15      C        0.18870    0.91978    0.73456    1.000
    C15      C        0.56130    0.33022    0.23456    1.000
    C15      C        0.83022    0.23456    0.06130    1.000
    C15      C        0.41978    0.73456    0.68870    1.000
    C15      C        0.91978    0.01544    0.56130    1.000
    C15      C        0.33022    0.51544    0.18870    1.000
    C15      C        0.23456    0.68870    0.91978    1.000
    C15      C        0.73456    0.06130    0.33022    1.000
    C15      C        0.01544    0.18870    0.83022    1.000
    C15      C        0.51544    0.56130    0.41978    1.000
    C15      C        0.91978    0.56130    0.01544    1.000
    C15      C        0.33022    0.18870    0.51544    1.000
    C15      C        0.83022    0.06130    0.23456    1.000
    C15      C        0.41978    0.68870    0.73456    1.000
    C15      C        0.51544    0.41978    0.56130    1.000
    C15      C        0.01544    0.83022    0.18870    1.000
    C15      C        0.73456    0.33022    0.06130    1.000
    C15      C        0.23456    0.91978    0.68870    1.000
    C15      C        0.06130    0.01544    0.41978    1.000
    C15      C        0.68870    0.51544    0.83022    1.000
    C15      C        0.56130    0.23456    0.33022    1.000
    C15      C        0.18870    0.73456    0.91978    1.000
    C15      C        0.31130    0.16978    0.48456    1.000
    C15      C        0.93870    0.58022    0.98456    1.000
    C15      C        0.81130    0.08022    0.26544    1.000
    C15      C        0.43870    0.66978    0.76544    1.000
    C15      C        0.16978    0.76544    0.93870    1.000
    C15      C        0.58022    0.26544    0.31130    1.000
    C15      C        0.08022    0.98456    0.43870    1.000
    C15      C        0.66978    0.48456    0.81130    1.000
    C15      C        0.76544    0.31130    0.08022    1.000
    C15      C        0.26544    0.93870    0.66978    1.000
    C15      C        0.98456    0.81130    0.16978    1.000
    C15      C        0.48456    0.43870    0.58022    1.000
    C15      C        0.58022    0.93870    0.98456    1.000
    C15      C        0.16978    0.31130    0.48456    1.000
    C15      C        0.66978    0.43870    0.76544    1.000
    C15      C        0.08022    0.81130    0.26544    1.000
    C15      C        0.98456    0.08022    0.43870    1.000
    C15      C        0.48456    0.66978    0.81130    1.000
    C15      C        0.76544    0.16978    0.93870    1.000
    C15      C        0.26544    0.58022    0.31130    1.000
    C15      C        0.43870    0.48456    0.58022    1.000
    C15      C        0.81130    0.98456    0.16978    1.000
    C15      C        0.93870    0.26544    0.66978    1.000
    C15      C        0.31130    0.76544    0.08022    1.000
    C15      C        0.18870    0.33022    0.51544    1.000
    C15      C        0.56130    0.91978    0.01544    1.000
    C15      C        0.68870    0.41978    0.73456    1.000
    C15      C        0.06130    0.83022    0.23456    1.000
    C15      C        0.33022    0.73456    0.06130    1.000
    C15      C        0.91978    0.23456    0.68870    1.000
    C15      C        0.41978    0.51544    0.56130    1.000
    C15      C        0.83022    0.01544    0.18870    1.000
    C15      C        0.73456    0.18870    0.91978    1.000
    C15      C        0.23456    0.56130    0.33022    1.000
    C15      C        0.51544    0.68870    0.83022    1.000
    C15      C        0.01544    0.06130    0.41978    1.000
    C15      C        0.41978    0.06130    0.01544    1.000
    C15      C        0.83022    0.68870    0.51544    1.000
    C15      C        0.33022    0.56130    0.23456    1.000
    C15      C        0.91978    0.18870    0.73456    1.000
    C15      C        0.01544    0.91978    0.56130    1.000
    C15      C        0.51544    0.33022    0.18870    1.000
    C15      C        0.23456    0.83022    0.06130    1.000
    C15      C        0.73456    0.41978    0.68870    1.000
    C15      C        0.56130    0.51544    0.41978    1.000
    C15      C        0.18870    0.01544    0.83022    1.000
    C15      C        0.06130    0.73456    0.33022    1.000
    C15      C        0.68870    0.23456    0.91978    1.000
    C15      C        0.81130    0.66978    0.48456    1.000
    C15      C        0.43870    0.08022    0.98456    1.000
    C15      C        0.31130    0.58022    0.26544    1.000
    C15      C        0.93870    0.16978    0.76544    1.000
    C15      C        0.66978    0.26544    0.93870    1.000
    C15      C        0.08022    0.76544    0.31130    1.000
    C15      C        0.58022    0.48456    0.43870    1.000
    C15      C        0.16978    0.98456    0.81130    1.000
    C15      C        0.26544    0.81130    0.08022    1.000
    C15      C        0.76544    0.43870    0.66978    1.000
    C15      C        0.48456    0.31130    0.16978    1.000
    C15      C        0.98456    0.93870    0.58022    1.000
    C15      C        0.58022    0.43870    0.48456    1.000
    C15      C        0.16978    0.81130    0.98456    1.000
    C15      C        0.66978    0.93870    0.26544    1.000
    C15      C        0.08022    0.31130    0.76544    1.000
    C15      C        0.98456    0.58022    0.93870    1.000
    C15      C        0.48456    0.16978    0.31130    1.000
    C15      C        0.76544    0.66978    0.43870    1.000
    C15      C        0.26544    0.08022    0.81130    1.000
    C15      C        0.43870    0.98456    0.08022    1.000
    C15      C        0.81130    0.48456    0.66978    1.000
    C15      C        0.93870    0.76544    0.16978    1.000
    C15      C        0.31130    0.26544    0.58022    1.000
    C15      C        0.18870    0.83022    0.01544    1.000
    C15      C        0.56130    0.41978    0.51544    1.000
    C15      C        0.68870    0.91978    0.23456    1.000
    C15      C        0.06130    0.33022    0.73456    1.000
    C15      C        0.33022    0.23456    0.56130    1.000
    C15      C        0.91978    0.73456    0.18870    1.000
    C15      C        0.41978    0.01544    0.06130    1.000
    C15      C        0.83022    0.51544    0.68870    1.000
    C15      C        0.73456    0.68870    0.41978    1.000
    C15      C        0.23456    0.06130    0.83022    1.000
    C15      C        0.51544    0.18870    0.33022    1.000
    C15      C        0.01544    0.56130    0.91978    1.000
    C15      C        0.41978    0.56130    0.51544    1.000
    C15      C        0.83022    0.18870    0.01544    1.000
    C15      C        0.33022    0.06130    0.73456    1.000
    C15      C        0.91978    0.68870    0.23456    1.000
    C15      C        0.01544    0.41978    0.06130    1.000
    C15      C        0.51544    0.83022    0.68870    1.000
    C15      C        0.23456    0.33022    0.56130    1.000
    C15      C        0.73456    0.91978    0.18870    1.000
    C15      C        0.56130    0.01544    0.91978    1.000
    C15      C        0.18870    0.51544    0.33022    1.000
    C15      C        0.06130    0.23456    0.83022    1.000
    C15      C        0.68870    0.73456    0.41978    1.000
    C15      C        0.81130    0.16978    0.98456    1.000
    C15      C        0.43870    0.58022    0.48456    1.000
    C15      C        0.31130    0.08022    0.76544    1.000
    C15      C        0.93870    0.66978    0.26544    1.000
    C15      C        0.66978    0.76544    0.43870    1.000
    C15      C        0.08022    0.26544    0.81130    1.000
    C15      C        0.58022    0.98456    0.93870    1.000
    C15      C        0.16978    0.48456    0.31130    1.000
    C15      C        0.26544    0.31130    0.58022    1.000
    C15      C        0.76544    0.93870    0.16978    1.000
    C15      C        0.48456    0.81130    0.66978    1.000
    C15      C        0.98456    0.43870    0.08022    1.000
    C16      C        0.66889    0.30018    0.97259    1.000
    C16      C        0.16889    0.44982    0.27741    1.000
    C16      C        0.58111    0.80018    0.77741    1.000
    C16      C        0.47259    0.08111    0.94982    1.000
    C16      C        0.97259    0.66889    0.30018    1.000
    C16      C        0.27741    0.16889    0.44982    1.000
    C16      C        0.77741    0.58111    0.80018    1.000
    C16      C        0.94982    0.47259    0.08111    1.000
    C16      C        0.30018    0.97259    0.66889    1.000
    C16      C        0.44982    0.27741    0.16889    1.000
    C16      C        0.80018    0.77741    0.58111    1.000
    C16      C        0.69982    0.33111    0.02741    1.000
    C16      C        0.05018    0.91889    0.52741    1.000
    C16      C        0.19982    0.41889    0.22259    1.000
    C16      C        0.55018    0.83111    0.72259    1.000
    C16      C        0.83111    0.72259    0.55018    1.000
    C16      C        0.41889    0.22259    0.19982    1.000
    C16      C        0.91889    0.52741    0.05018    1.000
    C16      C        0.33111    0.02741    0.69982    1.000
    C16      C        0.22259    0.19982    0.41889    1.000
    C16      C        0.72259    0.55018    0.83111    1.000
    C16      C        0.02741    0.69982    0.33111    1.000
    C16      C        0.52741    0.05018    0.91889    1.000
    C16      C        0.91889    0.05018    0.52741    1.000
    C16      C        0.33111    0.69982    0.02741    1.000
    C16      C        0.83111    0.55018    0.72259    1.000
    C16      C        0.41889    0.19982    0.22259    1.000
    C16      C        0.52741    0.91889    0.05018    1.000
    C16      C        0.02741    0.33111    0.69982    1.000
    C16      C        0.72259    0.83111    0.55018    1.000
    C16      C        0.22259    0.41889    0.19982    1.000
    C16      C        0.05018    0.52741    0.91889    1.000
    C16      C        0.69982    0.02741    0.33111    1.000
    C16      C        0.55018    0.72259    0.83111    1.000
    C16      C        0.19982    0.22259    0.41889    1.000
    C16      C        0.30018    0.66889    0.97259    1.000
    C16      C        0.94982    0.08111    0.47259    1.000
    C16      C        0.80018    0.58111    0.77741    1.000
    C16      C        0.44982    0.16889    0.27741    1.000
    C16      C        0.16889    0.27741    0.44982    1.000
    C16      C        0.58111    0.77741    0.80018    1.000
    C16      C        0.08111    0.47259    0.94982    1.000
    C16      C        0.66889    0.97259    0.30018    1.000
    C16      C        0.77741    0.80018    0.58111    1.000
    C16      C        0.27741    0.44982    0.16889    1.000
    C16      C        0.97259    0.30018    0.66889    1.000
    C16      C        0.47259    0.94982    0.08111    1.000
    C16      C        0.08111    0.44982    0.97259    1.000
    C16      C        0.66889    0.80018    0.47259    1.000
    C16      C        0.16889    0.94982    0.77741    1.000
    C16      C        0.58111    0.30018    0.27741    1.000
    C16      C        0.47259    0.58111    0.44982    1.000
    C16      C        0.97259    0.16889    0.80018    1.000
    C16      C        0.27741    0.66889    0.94982    1.000
    C16      C        0.77741    0.08111    0.30018    1.000
    C16      C        0.94982    0.97259    0.58111    1.000
    C16      C        0.30018    0.47259    0.16889    1.000
    C16      C        0.44982    0.77741    0.66889    1.000
    C16      C        0.80018    0.27741    0.08111    1.000
    C16      C        0.69982    0.83111    0.52741    1.000
    C16      C        0.05018    0.41889    0.02741    1.000
    C16      C        0.19982    0.91889    0.72259    1.000
    C16      C        0.55018    0.33111    0.22259    1.000
    C16      C        0.83111    0.22259    0.05018    1.000
    C16      C        0.41889    0.72259    0.69982    1.000
    C16      C        0.91889    0.02741    0.55018    1.000
    C16      C        0.33111    0.52741    0.19982    1.000
    C16      C        0.22259    0.69982    0.91889    1.000
    C16      C        0.72259    0.05018    0.33111    1.000
    C16      C        0.02741    0.19982    0.83111    1.000
    C16      C        0.52741    0.55018    0.41889    1.000
    C16      C        0.91889    0.55018    0.02741    1.000
    C16      C        0.33111    0.19982    0.52741    1.000
    C16      C        0.83111    0.05018    0.22259    1.000
    C16      C        0.41889    0.69982    0.72259    1.000
    C16      C        0.52741    0.41889    0.55018    1.000
    C16      C        0.02741    0.83111    0.19982    1.000
    C16      C        0.72259    0.33111    0.05018    1.000
    C16      C        0.22259    0.91889    0.69982    1.000
    C16      C        0.05018    0.02741    0.41889    1.000
    C16      C        0.69982    0.52741    0.83111    1.000
    C16      C        0.55018    0.22259    0.33111    1.000
    C16      C        0.19982    0.72259    0.91889    1.000
    C16      C        0.30018    0.16889    0.47259    1.000
    C16      C        0.94982    0.58111    0.97259    1.000
    C16      C        0.80018    0.08111    0.27741    1.000
    C16      C        0.44982    0.66889    0.77741    1.000
    C16      C        0.16889    0.77741    0.94982    1.000
    C16      C        0.58111    0.27741    0.30018    1.000
    C16      C        0.08111    0.97259    0.44982    1.000
    C16      C        0.66889    0.47259    0.80018    1.000
    C16      C        0.77741    0.30018    0.08111    1.000
    C16      C        0.27741    0.94982    0.66889    1.000
    C16      C        0.97259    0.80018    0.16889    1.000
    C16      C        0.47259    0.44982    0.58111    1.000
    C16      C        0.58111    0.94982    0.97259    1.000
    C16      C        0.16889    0.30018    0.47259    1.000
    C16      C        0.66889    0.44982    0.77741    1.000
    C16      C        0.08111    0.80018    0.27741    1.000
    C16      C        0.97259    0.08111    0.44982    1.000
    C16      C        0.47259    0.66889    0.80018    1.000
    C16      C        0.77741    0.16889    0.94982    1.000
    C16      C        0.27741    0.58111    0.30018    1.000
    C16      C        0.44982    0.47259    0.58111    1.000
    C16      C        0.80018    0.97259    0.16889    1.000
    C16      C        0.94982    0.27741    0.66889    1.000
    C16      C        0.30018    0.77741    0.08111    1.000
    C16      C        0.19982    0.33111    0.52741    1.000
    C16      C        0.55018    0.91889    0.02741    1.000
    C16      C        0.69982    0.41889    0.72259    1.000
    C16      C        0.05018    0.83111    0.22259    1.000
    C16      C        0.33111    0.72259    0.05018    1.000
    C16      C        0.91889    0.22259    0.69982    1.000
    C16      C        0.41889    0.52741    0.55018    1.000
    C16      C        0.83111    0.02741    0.19982    1.000
    C16      C        0.72259    0.19982    0.91889    1.000
    C16      C        0.22259    0.55018    0.33111    1.000
    C16      C        0.52741    0.69982    0.83111    1.000
    C16      C        0.02741    0.05018    0.41889    1.000
    C16      C        0.41889    0.05018    0.02741    1.000
    C16      C        0.83111    0.69982    0.52741    1.000
    C16      C        0.33111    0.55018    0.22259    1.000
    C16      C        0.91889    0.19982    0.72259    1.000
    C16      C        0.02741    0.91889    0.55018    1.000
    C16      C        0.52741    0.33111    0.19982    1.000
    C16      C        0.22259    0.83111    0.05018    1.000
    C16      C        0.72259    0.41889    0.69982    1.000
    C16      C        0.55018    0.52741    0.41889    1.000
    C16      C        0.19982    0.02741    0.83111    1.000
    C16      C        0.05018    0.72259    0.33111    1.000
    C16      C        0.69982    0.22259    0.91889    1.000
    C16      C        0.80018    0.66889    0.47259    1.000
    C16      C        0.44982    0.08111    0.97259    1.000
    C16      C        0.30018    0.58111    0.27741    1.000
    C16      C        0.94982    0.16889    0.77741    1.000
    C16      C        0.66889    0.27741    0.94982    1.000
    C16      C        0.08111    0.77741    0.30018    1.000
    C16      C        0.58111    0.47259    0.44982    1.000
    C16      C        0.16889    0.97259    0.80018    1.000
    C16      C        0.27741    0.80018    0.08111    1.000
    C16      C        0.77741    0.44982    0.66889    1.000
    C16      C        0.47259    0.30018    0.16889    1.000
    C16      C        0.97259    0.94982    0.58111    1.000
    C16      C        0.58111    0.44982    0.47259    1.000
    C16      C        0.16889    0.80018    0.97259    1.000
    C16      C        0.66889    0.94982    0.27741    1.000
    C16      C        0.08111    0.30018    0.77741    1.000
    C16      C        0.97259    0.58111    0.94982    1.000
    C16      C        0.47259    0.16889    0.30018    1.000
    C16      C        0.77741    0.66889    0.44982    1.000
    C16      C        0.27741    0.08111    0.80018    1.000
    C16      C        0.44982    0.97259    0.08111    1.000
    C16      C        0.80018    0.47259    0.66889    1.000
    C16      C        0.94982    0.77741    0.16889    1.000
    C16      C        0.30018    0.27741    0.58111    1.000
    C16      C        0.19982    0.83111    0.02741    1.000
    C16      C        0.55018    0.41889    0.52741    1.000
    C16      C        0.69982    0.91889    0.22259    1.000
    C16      C        0.05018    0.33111    0.72259    1.000
    C16      C        0.33111    0.22259    0.55018    1.000
    C16      C        0.91889    0.72259    0.19982    1.000
    C16      C        0.41889    0.02741    0.05018    1.000
    C16      C        0.83111    0.52741    0.69982    1.000
    C16      C        0.72259    0.69982    0.41889    1.000
    C16      C        0.22259    0.05018    0.83111    1.000
    C16      C        0.52741    0.19982    0.33111    1.000
    C16      C        0.02741    0.55018    0.91889    1.000
    C16      C        0.41889    0.55018    0.52741    1.000
    C16      C        0.83111    0.19982    0.02741    1.000
    C16      C        0.33111    0.05018    0.72259    1.000
    C16      C        0.91889    0.69982    0.22259    1.000
    C16      C        0.02741    0.41889    0.05018    1.000
    C16      C        0.52741    0.83111    0.69982    1.000
    C16      C        0.22259    0.33111    0.55018    1.000
    C16      C        0.72259    0.91889    0.19982    1.000
    C16      C        0.55018    0.02741    0.91889    1.000
    C16      C        0.19982    0.52741    0.33111    1.000
    C16      C        0.05018    0.22259    0.83111    1.000
    C16      C        0.69982    0.72259    0.41889    1.000
    C16      C        0.80018    0.16889    0.97259    1.000
    C16      C        0.44982    0.58111    0.47259    1.000
    C16      C        0.30018    0.08111    0.77741    1.000
    C16      C        0.94982    0.66889    0.27741    1.000
    C16      C        0.66889    0.77741    0.44982    1.000
    C16      C        0.08111    0.27741    0.80018    1.000
    C16      C        0.58111    0.97259    0.94982    1.000
    C16      C        0.16889    0.47259    0.30018    1.000
    C16      C        0.27741    0.30018    0.58111    1.000
    C16      C        0.77741    0.94982    0.16889    1.000
    C16      C        0.47259    0.80018    0.66889    1.000
    C16      C        0.97259    0.44982    0.08111    1.000
    C17      C        0.65710    0.28933    0.97197    1.000
    C17      C        0.15710    0.46067    0.27803    1.000
    C17      C        0.59290    0.78933    0.77803    1.000
    C17      C        0.47197    0.09290    0.96067    1.000
    C17      C        0.97197    0.65710    0.28933    1.000
    C17      C        0.27803    0.15710    0.46067    1.000
    C17      C        0.77803    0.59290    0.78933    1.000
    C17      C        0.96067    0.47197    0.09290    1.000
    C17      C        0.28933    0.97197    0.65710    1.000
    C17      C        0.46067    0.27803    0.15710    1.000
    C17      C        0.78933    0.77803    0.59290    1.000
    C17      C        0.71067    0.34290    0.02803    1.000
    C17      C        0.03933    0.90710    0.52803    1.000
    C17      C        0.21067    0.40710    0.22197    1.000
    C17      C        0.53933    0.84290    0.72197    1.000
    C17      C        0.84290    0.72197    0.53933    1.000
    C17      C        0.40710    0.22197    0.21067    1.000
    C17      C        0.90710    0.52803    0.03933    1.000
    C17      C        0.34290    0.02803    0.71067    1.000
    C17      C        0.22197    0.21067    0.40710    1.000
    C17      C        0.72197    0.53933    0.84290    1.000
    C17      C        0.02803    0.71067    0.34290    1.000
    C17      C        0.52803    0.03933    0.90710    1.000
    C17      C        0.90710    0.03933    0.52803    1.000
    C17      C        0.34290    0.71067    0.02803    1.000
    C17      C        0.84290    0.53933    0.72197    1.000
    C17      C        0.40710    0.21067    0.22197    1.000
    C17      C        0.52803    0.90710    0.03933    1.000
    C17      C        0.02803    0.34290    0.71067    1.000
    C17      C        0.72197    0.84290    0.53933    1.000
    C17      C        0.22197    0.40710    0.21067    1.000
    C17      C        0.03933    0.52803    0.90710    1.000
    C17      C        0.71067    0.02803    0.34290    1.000
    C17      C        0.53933    0.72197    0.84290    1.000
    C17      C        0.21067    0.22197    0.40710    1.000
    C17      C        0.28933    0.65710    0.97197    1.000
    C17      C        0.96067    0.09290    0.47197    1.000
    C17      C        0.78933    0.59290    0.77803    1.000
    C17      C        0.46067    0.15710    0.27803    1.000
    C17      C        0.15710    0.27803    0.46067    1.000
    C17      C        0.59290    0.77803    0.78933    1.000
    C17      C        0.09290    0.47197    0.96067    1.000
    C17      C        0.65710    0.97197    0.28933    1.000
    C17      C        0.77803    0.78933    0.59290    1.000
    C17      C        0.27803    0.46067    0.15710    1.000
    C17      C        0.97197    0.28933    0.65710    1.000
    C17      C        0.47197    0.96067    0.09290    1.000
    C17      C        0.09290    0.46067    0.97197    1.000
    C17      C        0.65710    0.78933    0.47197    1.000
    C17      C        0.15710    0.96067    0.77803    1.000
    C17      C        0.59290    0.28933    0.27803    1.000
    C17      C        0.47197    0.59290    0.46067    1.000
    C17      C        0.97197    0.15710    0.78933    1.000
    C17      C        0.27803    0.65710    0.96067    1.000
    C17      C        0.77803    0.09290    0.28933    1.000
    C17      C        0.96067    0.97197    0.59290    1.000
    C17      C        0.28933    0.47197    0.15710    1.000
    C17      C        0.46067    0.77803    0.65710    1.000
    C17      C        0.78933    0.27803    0.09290    1.000
    C17      C        0.71067    0.84290    0.52803    1.000
    C17      C        0.03933    0.40710    0.02803    1.000
    C17      C        0.21067    0.90710    0.72197    1.000
    C17      C        0.53933    0.34290    0.22197    1.000
    C17      C        0.84290    0.22197    0.03933    1.000
    C17      C        0.40710    0.72197    0.71067    1.000
    C17      C        0.90710    0.02803    0.53933    1.000
    C17      C        0.34290    0.52803    0.21067    1.000
    C17      C        0.22197    0.71067    0.90710    1.000
    C17      C        0.72197    0.03933    0.34290    1.000
    C17      C        0.02803    0.21067    0.84290    1.000
    C17      C        0.52803    0.53933    0.40710    1.000
    C17      C        0.90710    0.53933    0.02803    1.000
    C17      C        0.34290    0.21067    0.52803    1.000
    C17      C        0.84290    0.03933    0.22197    1.000
    C17      C        0.40710    0.71067    0.72197    1.000
    C17      C        0.52803    0.40710    0.53933    1.000
    C17      C        0.02803    0.84290    0.21067    1.000
    C17      C        0.72197    0.34290    0.03933    1.000
    C17      C        0.22197    0.90710    0.71067    1.000
    C17      C        0.03933    0.02803    0.40710    1.000
    C17      C        0.71067    0.52803    0.84290    1.000
    C17      C        0.53933    0.22197    0.34290    1.000
    C17      C        0.21067    0.72197    0.90710    1.000
    C17      C        0.28933    0.15710    0.47197    1.000
    C17      C        0.96067    0.59290    0.97197    1.000
    C17      C        0.78933    0.09290    0.27803    1.000
    C17      C        0.46067    0.65710    0.77803    1.000
    C17      C        0.15710    0.77803    0.96067    1.000
    C17      C        0.59290    0.27803    0.28933    1.000
    C17      C        0.09290    0.97197    0.46067    1.000
    C17      C        0.65710    0.47197    0.78933    1.000
    C17      C        0.77803    0.28933    0.09290    1.000
    C17      C        0.27803    0.96067    0.65710    1.000
    C17      C        0.97197    0.78933    0.15710    1.000
    C17      C        0.47197    0.46067    0.59290    1.000
    C17      C        0.59290    0.96067    0.97197    1.000
    C17      C        0.15710    0.28933    0.47197    1.000
    C17      C        0.65710    0.46067    0.77803    1.000
    C17      C        0.09290    0.78933    0.27803    1.000
    C17      C        0.97197    0.09290    0.46067    1.000
    C17      C        0.47197    0.65710    0.78933    1.000
    C17      C        0.77803    0.15710    0.96067    1.000
    C17      C        0.27803    0.59290    0.28933    1.000
    C17      C        0.46067    0.47197    0.59290    1.000
    C17      C        0.78933    0.97197    0.15710    1.000
    C17      C        0.96067    0.27803    0.65710    1.000
    C17      C        0.28933    0.77803    0.09290    1.000
    C17      C        0.21067    0.34290    0.52803    1.000
    C17      C        0.53933    0.90710    0.02803    1.000
    C17      C        0.71067    0.40710    0.72197    1.000
    C17      C        0.03933    0.84290    0.22197    1.000
    C17      C        0.34290    0.72197    0.03933    1.000
    C17      C        0.90710    0.22197    0.71067    1.000
    C17      C        0.40710    0.52803    0.53933    1.000
    C17      C        0.84290    0.02803    0.21067    1.000
    C17      C        0.72197    0.21067    0.90710    1.000
    C17      C        0.22197    0.53933    0.34290    1.000
    C17      C        0.52803    0.71067    0.84290    1.000
    C17      C        0.02803    0.03933    0.40710    1.000
    C17      C        0.40710    0.03933    0.02803    1.000
    C17      C        0.84290    0.71067    0.52803    1.000
    C17      C        0.34290    0.53933    0.22197    1.000
    C17      C        0.90710    0.21067    0.72197    1.000
    C17      C        0.02803    0.90710    0.53933    1.000
    C17      C        0.52803    0.34290    0.21067    1.000
    C17      C        0.22197    0.84290    0.03933    1.000
    C17      C        0.72197    0.40710    0.71067    1.000
    C17      C        0.53933    0.52803    0.40710    1.000
    C17      C        0.21067    0.02803    0.84290    1.000
    C17      C        0.03933    0.72197    0.34290    1.000
    C17      C        0.71067    0.22197    0.90710    1.000
    C17      C        0.78933    0.65710    0.47197    1.000
    C17      C        0.46067    0.09290    0.97197    1.000
    C17      C        0.28933    0.59290    0.27803    1.000
    C17      C        0.96067    0.15710    0.77803    1.000
    C17      C        0.65710    0.27803    0.96067    1.000
    C17      C        0.09290    0.77803    0.28933    1.000
    C17      C        0.59290    0.47197    0.46067    1.000
    C17      C        0.15710    0.97197    0.78933    1.000
    C17      C        0.27803    0.78933    0.09290    1.000
    C17      C        0.77803    0.46067    0.65710    1.000
    C17      C        0.47197    0.28933    0.15710    1.000
    C17      C        0.97197    0.96067    0.59290    1.000
    C17      C        0.59290    0.46067    0.47197    1.000
    C17      C        0.15710    0.78933    0.97197    1.000
    C17      C        0.65710    0.96067    0.27803    1.000
    C17      C        0.09290    0.28933    0.77803    1.000
    C17      C        0.97197    0.59290    0.96067    1.000
    C17      C        0.47197    0.15710    0.28933    1.000
    C17      C        0.77803    0.65710    0.46067    1.000
    C17      C        0.27803    0.09290    0.78933    1.000
    C17      C        0.46067    0.97197    0.09290    1.000
    C17      C        0.78933    0.47197    0.65710    1.000
    C17      C        0.96067    0.77803    0.15710    1.000
    C17      C        0.28933    0.27803    0.59290    1.000
    C17      C        0.21067    0.84290    0.02803    1.000
    C17      C        0.53933    0.40710    0.52803    1.000
    C17      C        0.71067    0.90710    0.22197    1.000
    C17      C        0.03933    0.34290    0.72197    1.000
    C17      C        0.34290    0.22197    0.53933    1.000
    C17      C        0.90710    0.72197    0.21067    1.000
    C17      C        0.40710    0.02803    0.03933    1.000
    C17      C        0.84290    0.52803    0.71067    1.000
    C17      C        0.72197    0.71067    0.40710    1.000
    C17      C        0.22197    0.03933    0.84290    1.000
    C17      C        0.52803    0.21067    0.34290    1.000
    C17      C        0.02803    0.53933    0.90710    1.000
    C17      C        0.40710    0.53933    0.52803    1.000
    C17      C        0.84290    0.21067    0.02803    1.000
    C17      C        0.34290    0.03933    0.72197    1.000
    C17      C        0.90710    0.71067    0.22197    1.000
    C17      C        0.02803    0.40710    0.03933    1.000
    C17      C        0.52803    0.84290    0.71067    1.000
    C17      C        0.22197    0.34290    0.53933    1.000
    C17      C        0.72197    0.90710    0.21067    1.000
    C17      C        0.53933    0.02803    0.90710    1.000
    C17      C        0.21067    0.52803    0.34290    1.000
    C17      C        0.03933    0.22197    0.84290    1.000
    C17      C        0.71067    0.72197    0.40710    1.000
    C17      C        0.78933    0.15710    0.97197    1.000
    C17      C        0.46067    0.59290    0.47197    1.000
    C17      C        0.28933    0.09290    0.77803    1.000
    C17      C        0.96067    0.65710    0.27803    1.000
    C17      C        0.65710    0.77803    0.46067    1.000
    C17      C        0.09290    0.27803    0.78933    1.000
    C17      C        0.59290    0.97197    0.96067    1.000
    C17      C        0.15710    0.47197    0.28933    1.000
    C17      C        0.27803    0.28933    0.59290    1.000
    C17      C        0.77803    0.96067    0.15710    1.000
    C17      C        0.47197    0.78933    0.65710    1.000
    C17      C        0.97197    0.46067    0.09290    1.000
    C18      C        0.65796    0.30816    0.89347    1.000
    C18      C        0.15796    0.44184    0.35653    1.000
    C18      C        0.59204    0.80816    0.85653    1.000
    C18      C        0.39347    0.09204    0.94184    1.000
    C18      C        0.89347    0.65796    0.30816    1.000
    C18      C        0.35653    0.15796    0.44184    1.000
    C18      C        0.85653    0.59204    0.80816    1.000
    C18      C        0.94184    0.39347    0.09204    1.000
    C18      C        0.30816    0.89347    0.65796    1.000
    C18      C        0.44184    0.35653    0.15796    1.000
    C18      C        0.80816    0.85653    0.59204    1.000
    C18      C        0.69184    0.34204    0.10653    1.000
    C18      C        0.05816    0.90796    0.60653    1.000
    C18      C        0.19184    0.40796    0.14347    1.000
    C18      C        0.55816    0.84204    0.64347    1.000
    C18      C        0.84204    0.64347    0.55816    1.000
    C18      C        0.40796    0.14347    0.19184    1.000
    C18      C        0.90796    0.60653    0.05816    1.000
    C18      C        0.34204    0.10653    0.69184    1.000
    C18      C        0.14347    0.19184    0.40796    1.000
    C18      C        0.64347    0.55816    0.84204    1.000
    C18      C        0.10653    0.69184    0.34204    1.000
    C18      C        0.60653    0.05816    0.90796    1.000
    C18      C        0.90796    0.05816    0.60653    1.000
    C18      C        0.34204    0.69184    0.10653    1.000
    C18      C        0.84204    0.55816    0.64347    1.000
    C18      C        0.40796    0.19184    0.14347    1.000
    C18      C        0.60653    0.90796    0.05816    1.000
    C18      C        0.10653    0.34204    0.69184    1.000
    C18      C        0.64347    0.84204    0.55816    1.000
    C18      C        0.14347    0.40796    0.19184    1.000
    C18      C        0.05816    0.60653    0.90796    1.000
    C18      C        0.69184    0.10653    0.34204    1.000
    C18      C        0.55816    0.64347    0.84204    1.000
    C18      C        0.19184    0.14347    0.40796    1.000
    C18      C        0.30816    0.65796    0.89347    1.000
    C18      C        0.94184    0.09204    0.39347    1.000
    C18      C        0.80816    0.59204    0.85653    1.000
    C18      C        0.44184    0.15796    0.35653    1.000
    C18      C        0.15796    0.35653    0.44184    1.000
    C18      C        0.59204    0.85653    0.80816    1.000
    C18      C        0.09204    0.39347    0.94184    1.000
    C18      C        0.65796    0.89347    0.30816    1.000
    C18      C        0.85653    0.80816    0.59204    1.000
    C18      C        0.35653    0.44184    0.15796    1.000
    C18      C        0.89347    0.30816    0.65796    1.000
    C18      C        0.39347    0.94184    0.09204    1.000
    C18      C        0.09204    0.44184    0.89347    1.000
    C18      C        0.65796    0.80816    0.39347    1.000
    C18      C        0.15796    0.94184    0.85653    1.000
    C18      C        0.59204    0.30816    0.35653    1.000
    C18      C        0.39347    0.59204    0.44184    1.000
    C18      C        0.89347    0.15796    0.80816    1.000
    C18      C        0.35653    0.65796    0.94184    1.000
    C18      C        0.85653    0.09204    0.30816    1.000
    C18      C        0.94184    0.89347    0.59204    1.000
    C18      C        0.30816    0.39347    0.15796    1.000
    C18      C        0.44184    0.85653    0.65796    1.000
    C18      C        0.80816    0.35653    0.09204    1.000
    C18      C        0.69184    0.84204    0.60653    1.000
    C18      C        0.05816    0.40796    0.10653    1.000
    C18      C        0.19184    0.90796    0.64347    1.000
    C18      C        0.55816    0.34204    0.14347    1.000
    C18      C        0.84204    0.14347    0.05816    1.000
    C18      C        0.40796    0.64347    0.69184    1.000
    C18      C        0.90796    0.10653    0.55816    1.000
    C18      C        0.34204    0.60653    0.19184    1.000
    C18      C        0.14347    0.69184    0.90796    1.000
    C18      C        0.64347    0.05816    0.34204    1.000
    C18      C        0.10653    0.19184    0.84204    1.000
    C18      C        0.60653    0.55816    0.40796    1.000
    C18      C        0.90796    0.55816    0.10653    1.000
    C18      C        0.34204    0.19184    0.60653    1.000
    C18      C        0.84204    0.05816    0.14347    1.000
    C18      C        0.40796    0.69184    0.64347    1.000
    C18      C        0.60653    0.40796    0.55816    1.000
    C18      C        0.10653    0.84204    0.19184    1.000
    C18      C        0.64347    0.34204    0.05816    1.000
    C18      C        0.14347    0.90796    0.69184    1.000
    C18      C        0.05816    0.10653    0.40796    1.000
    C18      C        0.69184    0.60653    0.84204    1.000
    C18      C        0.55816    0.14347    0.34204    1.000
    C18      C        0.19184    0.64347    0.90796    1.000
    C18      C        0.30816    0.15796    0.39347    1.000
    C18      C        0.94184    0.59204    0.89347    1.000
    C18      C        0.80816    0.09204    0.35653    1.000
    C18      C        0.44184    0.65796    0.85653    1.000
    C18      C        0.15796    0.85653    0.94184    1.000
    C18      C        0.59204    0.35653    0.30816    1.000
    C18      C        0.09204    0.89347    0.44184    1.000
    C18      C        0.65796    0.39347    0.80816    1.000
    C18      C        0.85653    0.30816    0.09204    1.000
    C18      C        0.35653    0.94184    0.65796    1.000
    C18      C        0.89347    0.80816    0.15796    1.000
    C18      C        0.39347    0.44184    0.59204    1.000
    C18      C        0.59204    0.94184    0.89347    1.000
    C18      C        0.15796    0.30816    0.39347    1.000
    C18      C        0.65796    0.44184    0.85653    1.000
    C18      C        0.09204    0.80816    0.35653    1.000
    C18      C        0.89347    0.09204    0.44184    1.000
    C18      C        0.39347    0.65796    0.80816    1.000
    C18      C        0.85653    0.15796    0.94184    1.000
    C18      C        0.35653    0.59204    0.30816    1.000
    C18      C        0.44184    0.39347    0.59204    1.000
    C18      C        0.80816    0.89347    0.15796    1.000
    C18      C        0.94184    0.35653    0.65796    1.000
    C18      C        0.30816    0.85653    0.09204    1.000
    C18      C        0.19184    0.34204    0.60653    1.000
    C18      C        0.55816    0.90796    0.10653    1.000
    C18      C        0.69184    0.40796    0.64347    1.000
    C18      C        0.05816    0.84204    0.14347    1.000
    C18      C        0.34204    0.64347    0.05816    1.000
    C18      C        0.90796    0.14347    0.69184    1.000
    C18      C        0.40796    0.60653    0.55816    1.000
    C18      C        0.84204    0.10653    0.19184    1.000
    C18      C        0.64347    0.19184    0.90796    1.000
    C18      C        0.14347    0.55816    0.34204    1.000
    C18      C        0.60653    0.69184    0.84204    1.000
    C18      C        0.10653    0.05816    0.40796    1.000
    C18      C        0.40796    0.05816    0.10653    1.000
    C18      C        0.84204    0.69184    0.60653    1.000
    C18      C        0.34204    0.55816    0.14347    1.000
    C18      C        0.90796    0.19184    0.64347    1.000
    C18      C        0.10653    0.90796    0.55816    1.000
    C18      C        0.60653    0.34204    0.19184    1.000
    C18      C        0.14347    0.84204    0.05816    1.000
    C18      C        0.64347    0.40796    0.69184    1.000
    C18      C        0.55816    0.60653    0.40796    1.000
    C18      C        0.19184    0.10653    0.84204    1.000
    C18      C        0.05816    0.64347    0.34204    1.000
    C18      C        0.69184    0.14347    0.90796    1.000
    C18      C        0.80816    0.65796    0.39347    1.000
    C18      C        0.44184    0.09204    0.89347    1.000
    C18      C        0.30816    0.59204    0.35653    1.000
    C18      C        0.94184    0.15796    0.85653    1.000
    C18      C        0.65796    0.35653    0.94184    1.000
    C18      C        0.09204    0.85653    0.30816    1.000
    C18      C        0.59204    0.39347    0.44184    1.000
    C18      C        0.15796    0.89347    0.80816    1.000
    C18      C        0.35653    0.80816    0.09204    1.000
    C18      C        0.85653    0.44184    0.65796    1.000
    C18      C        0.39347    0.30816    0.15796    1.000
    C18      C        0.89347    0.94184    0.59204    1.000
    C18      C        0.59204    0.44184    0.39347    1.000
    C18      C        0.15796    0.80816    0.89347    1.000
    C18      C        0.65796    0.94184    0.35653    1.000
    C18      C        0.09204    0.30816    0.85653    1.000
    C18      C        0.89347    0.59204    0.94184    1.000
    C18      C        0.39347    0.15796    0.30816    1.000
    C18      C        0.85653    0.65796    0.44184    1.000
    C18      C        0.35653    0.09204    0.80816    1.000
    C18      C        0.44184    0.89347    0.09204    1.000
    C18      C        0.80816    0.39347    0.65796    1.000
    C18      C        0.94184    0.85653    0.15796    1.000
    C18      C        0.30816    0.35653    0.59204    1.000
    C18      C        0.19184    0.84204    0.10653    1.000
    C18      C        0.55816    0.40796    0.60653    1.000
    C18      C        0.69184    0.90796    0.14347    1.000
    C18      C        0.05816    0.34204    0.64347    1.000
    C18      C        0.34204    0.14347    0.55816    1.000
    C18      C        0.90796    0.64347    0.19184    1.000
    C18      C        0.40796    0.10653    0.05816    1.000
    C18      C        0.84204    0.60653    0.69184    1.000
    C18      C        0.64347    0.69184    0.40796    1.000
    C18      C        0.14347    0.05816    0.84204    1.000
    C18      C        0.60653    0.19184    0.34204    1.000
    C18      C        0.10653    0.55816    0.90796    1.000
    C18      C        0.40796    0.55816    0.60653    1.000
    C18      C        0.84204    0.19184    0.10653    1.000
    C18      C        0.34204    0.05816    0.64347    1.000
    C18      C        0.90796    0.69184    0.14347    1.000
    C18      C        0.10653    0.40796    0.05816    1.000
    C18      C        0.60653    0.84204    0.69184    1.000
    C18      C        0.14347    0.34204    0.55816    1.000
    C18      C        0.64347    0.90796    0.19184    1.000
    C18      C        0.55816    0.10653    0.90796    1.000
    C18      C        0.19184    0.60653    0.34204    1.000
    C18      C        0.05816    0.14347    0.84204    1.000
    C18      C        0.69184    0.64347    0.40796    1.000
    C18      C        0.80816    0.15796    0.89347    1.000
    C18      C        0.44184    0.59204    0.39347    1.000
    C18      C        0.30816    0.09204    0.85653    1.000
    C18      C        0.94184    0.65796    0.35653    1.000
    C18      C        0.65796    0.85653    0.44184    1.000
    C18      C        0.09204    0.35653    0.80816    1.000
    C18      C        0.59204    0.89347    0.94184    1.000
    C18      C        0.15796    0.39347    0.30816    1.000
    C18      C        0.35653    0.30816    0.59204    1.000
    C18      C        0.85653    0.94184    0.15796    1.000
    C18      C        0.39347    0.80816    0.65796    1.000
    C18      C        0.89347    0.44184    0.09204    1.000
    C19      C        0.65329    0.28092    0.88844    1.000
    C19      C        0.15329    0.46908    0.36156    1.000
    C19      C        0.59671    0.78092    0.86156    1.000
    C19      C        0.38844    0.09671    0.96908    1.000
    C19      C        0.88844    0.65329    0.28092    1.000
    C19      C        0.36156    0.15329    0.46908    1.000
    C19      C        0.86156    0.59671    0.78092    1.000
    C19      C        0.96908    0.38844    0.09671    1.000
    C19      C        0.28092    0.88844    0.65329    1.000
    C19      C        0.46908    0.36156    0.15329    1.000
    C19      C        0.78092    0.86156    0.59671    1.000
    C19      C        0.71908    0.34671    0.11156    1.000
    C19      C        0.03092    0.90329    0.61156    1.000
    C19      C        0.21908    0.40329    0.13844    1.000
    C19      C        0.53092    0.84671    0.63844    1.000
    C19      C        0.84671    0.63844    0.53092    1.000
    C19      C        0.40329    0.13844    0.21908    1.000
    C19      C        0.90329    0.61156    0.03092    1.000
    C19      C        0.34671    0.11156    0.71908    1.000
    C19      C        0.13844    0.21908    0.40329    1.000
    C19      C        0.63844    0.53092    0.84671    1.000
    C19      C        0.11156    0.71908    0.34671    1.000
    C19      C        0.61156    0.03092    0.90329    1.000
    C19      C        0.90329    0.03092    0.61156    1.000
    C19      C        0.34671    0.71908    0.11156    1.000
    C19      C        0.84671    0.53092    0.63844    1.000
    C19      C        0.40329    0.21908    0.13844    1.000
    C19      C        0.61156    0.90329    0.03092    1.000
    C19      C        0.11156    0.34671    0.71908    1.000
    C19      C        0.63844    0.84671    0.53092    1.000
    C19      C        0.13844    0.40329    0.21908    1.000
    C19      C        0.03092    0.61156    0.90329    1.000
    C19      C        0.71908    0.11156    0.34671    1.000
    C19      C        0.53092    0.63844    0.84671    1.000
    C19      C        0.21908    0.13844    0.40329    1.000
    C19      C        0.28092    0.65329    0.88844    1.000
    C19      C        0.96908    0.09671    0.38844    1.000
    C19      C        0.78092    0.59671    0.86156    1.000
    C19      C        0.46908    0.15329    0.36156    1.000
    C19      C        0.15329    0.36156    0.46908    1.000
    C19      C        0.59671    0.86156    0.78092    1.000
    C19      C        0.09671    0.38844    0.96908    1.000
    C19      C        0.65329    0.88844    0.28092    1.000
    C19      C        0.86156    0.78092    0.59671    1.000
    C19      C        0.36156    0.46908    0.15329    1.000
    C19      C        0.88844    0.28092    0.65329    1.000
    C19      C        0.38844    0.96908    0.09671    1.000
    C19      C        0.09671    0.46908    0.88844    1.000
    C19      C        0.65329    0.78092    0.38844    1.000
    C19      C        0.15329    0.96908    0.86156    1.000
    C19      C        0.59671    0.28092    0.36156    1.000
    C19      C        0.38844    0.59671    0.46908    1.000
    C19      C        0.88844    0.15329    0.78092    1.000
    C19      C        0.36156    0.65329    0.96908    1.000
    C19      C        0.86156    0.09671    0.28092    1.000
    C19      C        0.96908    0.88844    0.59671    1.000
    C19      C        0.28092    0.38844    0.15329    1.000
    C19      C        0.46908    0.86156    0.65329    1.000
    C19      C        0.78092    0.36156    0.09671    1.000
    C19      C        0.71908    0.84671    0.61156    1.000
    C19      C        0.03092    0.40329    0.11156    1.000
    C19      C        0.21908    0.90329    0.63844    1.000
    C19      C        0.53092    0.34671    0.13844    1.000
    C19      C        0.84671    0.13844    0.03092    1.000
    C19      C        0.40329    0.63844    0.71908    1.000
    C19      C        0.90329    0.11156    0.53092    1.000
    C19      C        0.34671    0.61156    0.21908    1.000
    C19      C        0.13844    0.71908    0.90329    1.000
    C19      C        0.63844    0.03092    0.34671    1.000
    C19      C        0.11156    0.21908    0.84671    1.000
    C19      C        0.61156    0.53092    0.40329    1.000
    C19      C        0.90329    0.53092    0.11156    1.000
    C19      C        0.34671    0.21908    0.61156    1.000
    C19      C        0.84671    0.03092    0.13844    1.000
    C19      C        0.40329    0.71908    0.63844    1.000
    C19      C        0.61156    0.40329    0.53092    1.000
    C19      C        0.11156    0.84671    0.21908    1.000
    C19      C        0.63844    0.34671    0.03092    1.000
    C19      C        0.13844    0.90329    0.71908    1.000
    C19      C        0.03092    0.11156    0.40329    1.000
    C19      C        0.71908    0.61156    0.84671    1.000
    C19      C        0.53092    0.13844    0.34671    1.000
    C19      C        0.21908    0.63844    0.90329    1.000
    C19      C        0.28092    0.15329    0.38844    1.000
    C19      C        0.96908    0.59671    0.88844    1.000
    C19      C        0.78092    0.09671    0.36156    1.000
    C19      C        0.46908    0.65329    0.86156    1.000
    C19      C        0.15329    0.86156    0.96908    1.000
    C19      C        0.59671    0.36156    0.28092    1.000
    C19      C        0.09671    0.88844    0.46908    1.000
    C19      C        0.65329    0.38844    0.78092    1.000
    C19      C        0.86156    0.28092    0.09671    1.000
    C19      C        0.36156    0.96908    0.65329    1.000
    C19      C        0.88844    0.78092    0.15329    1.000
    C19      C        0.38844    0.46908    0.59671    1.000
    C19      C        0.59671    0.96908    0.88844    1.000
    C19      C        0.15329    0.28092    0.38844    1.000
    C19      C        0.65329    0.46908    0.86156    1.000
    C19      C        0.09671    0.78092    0.36156    1.000
    C19      C        0.88844    0.09671    0.46908    1.000
    C19      C        0.38844    0.65329    0.78092    1.000
    C19      C        0.86156    0.15329    0.96908    1.000
    C19      C        0.36156    0.59671    0.28092    1.000
    C19      C        0.46908    0.38844    0.59671    1.000
    C19      C        0.78092    0.88844    0.15329    1.000
    C19      C        0.96908    0.36156    0.65329    1.000
    C19      C        0.28092    0.86156    0.09671    1.000
    C19      C        0.21908    0.34671    0.61156    1.000
    C19      C        0.53092    0.90329    0.11156    1.000
    C19      C        0.71908    0.40329    0.63844    1.000
    C19      C        0.03092    0.84671    0.13844    1.000
    C19      C        0.34671    0.63844    0.03092    1.000
    C19      C        0.90329    0.13844    0.71908    1.000
    C19      C        0.40329    0.61156    0.53092    1.000
    C19      C        0.84671    0.11156    0.21908    1.000
    C19      C        0.63844    0.21908    0.90329    1.000
    C19      C        0.13844    0.53092    0.34671    1.000
    C19      C        0.61156    0.71908    0.84671    1.000
    C19      C        0.11156    0.03092    0.40329    1.000
    C19      C        0.40329    0.03092    0.11156    1.000
    C19      C        0.84671    0.71908    0.61156    1.000
    C19      C        0.34671    0.53092    0.13844    1.000
    C19      C        0.90329    0.21908    0.63844    1.000
    C19      C        0.11156    0.90329    0.53092    1.000
    C19      C        0.61156    0.34671    0.21908    1.000
    C19      C        0.13844    0.84671    0.03092    1.000
    C19      C        0.63844    0.40329    0.71908    1.000
    C19      C        0.53092    0.61156    0.40329    1.000
    C19      C        0.21908    0.11156    0.84671    1.000
    C19      C        0.03092    0.63844    0.34671    1.000
    C19      C        0.71908    0.13844    0.90329    1.000
    C19      C        0.78092    0.65329    0.38844    1.000
    C19      C        0.46908    0.09671    0.88844    1.000
    C19      C        0.28092    0.59671    0.36156    1.000
    C19      C        0.96908    0.15329    0.86156    1.000
    C19      C        0.65329    0.36156    0.96908    1.000
    C19      C        0.09671    0.86156    0.28092    1.000
    C19      C        0.59671    0.38844    0.46908    1.000
    C19      C        0.15329    0.88844    0.78092    1.000
    C19      C        0.36156    0.78092    0.09671    1.000
    C19      C        0.86156    0.46908    0.65329    1.000
    C19      C        0.38844    0.28092    0.15329    1.000
    C19      C        0.88844    0.96908    0.59671    1.000
    C19      C        0.59671    0.46908    0.38844    1.000
    C19      C        0.15329    0.78092    0.88844    1.000
    C19      C        0.65329    0.96908    0.36156    1.000
    C19      C        0.09671    0.28092    0.86156    1.000
    C19      C        0.88844    0.59671    0.96908    1.000
    C19      C        0.38844    0.15329    0.28092    1.000
    C19      C        0.86156    0.65329    0.46908    1.000
    C19      C        0.36156    0.09671    0.78092    1.000
    C19      C        0.46908    0.88844    0.09671    1.000
    C19      C        0.78092    0.38844    0.65329    1.000
    C19      C        0.96908    0.86156    0.15329    1.000
    C19      C        0.28092    0.36156    0.59671    1.000
    C19      C        0.21908    0.84671    0.11156    1.000
    C19      C        0.53092    0.40329    0.61156    1.000
    C19      C        0.71908    0.90329    0.13844    1.000
    C19      C        0.03092    0.34671    0.63844    1.000
    C19      C        0.34671    0.13844    0.53092    1.000
    C19      C        0.90329    0.63844    0.21908    1.000
    C19      C        0.40329    0.11156    0.03092    1.000
    C19      C        0.84671    0.61156    0.71908    1.000
    C19      C        0.63844    0.71908    0.40329    1.000
    C19      C        0.13844    0.03092    0.84671    1.000
    C19      C        0.61156    0.21908    0.34671    1.000
    C19      C        0.11156    0.53092    0.90329    1.000
    C19      C        0.40329    0.53092    0.61156    1.000
    C19      C        0.84671    0.21908    0.11156    1.000
    C19      C        0.34671    0.03092    0.63844    1.000
    C19      C        0.90329    0.71908    0.13844    1.000
    C19      C        0.11156    0.40329    0.03092    1.000
    C19      C        0.61156    0.84671    0.71908    1.000
    C19      C        0.13844    0.34671    0.53092    1.000
    C19      C        0.63844    0.90329    0.21908    1.000
    C19      C        0.53092    0.11156    0.90329    1.000
    C19      C        0.21908    0.61156    0.34671    1.000
    C19      C        0.03092    0.13844    0.84671    1.000
    C19      C        0.71908    0.63844    0.40329    1.000
    C19      C        0.78092    0.15329    0.88844    1.000
    C19      C        0.46908    0.59671    0.38844    1.000
    C19      C        0.28092    0.09671    0.86156    1.000
    C19      C        0.96908    0.65329    0.36156    1.000
    C19      C        0.65329    0.86156    0.46908    1.000
    C19      C        0.09671    0.36156    0.78092    1.000
    C19      C        0.59671    0.88844    0.96908    1.000
    C19      C        0.15329    0.38844    0.28092    1.000
    C19      C        0.36156    0.28092    0.59671    1.000
    C19      C        0.86156    0.96908    0.15329    1.000
    C19      C        0.38844    0.78092    0.65329    1.000
    C19      C        0.88844    0.46908    0.09671    1.000
    C20      C        0.65109    0.29596    0.88504    1.000
    C20      C        0.15109    0.45404    0.36496    1.000
    C20      C        0.59891    0.79596    0.86496    1.000
    C20      C        0.38504    0.09891    0.95404    1.000
    C20      C        0.88504    0.65109    0.29596    1.000
    C20      C        0.36496    0.15109    0.45404    1.000
    C20      C        0.86496    0.59891    0.79596    1.000
    C20      C        0.95404    0.38504    0.09891    1.000
    C20      C        0.29596    0.88504    0.65109    1.000
    C20      C        0.45404    0.36496    0.15109    1.000
    C20      C        0.79596    0.86496    0.59891    1.000
    C20      C        0.70404    0.34891    0.11496    1.000
    C20      C        0.04596    0.90109    0.61496    1.000
    C20      C        0.20404    0.40109    0.13504    1.000
    C20      C        0.54596    0.84891    0.63504    1.000
    C20      C        0.84891    0.63504    0.54596    1.000
    C20      C        0.40109    0.13504    0.20404    1.000
    C20      C        0.90109    0.61496    0.04596    1.000
    C20      C        0.34891    0.11496    0.70404    1.000
    C20      C        0.13504    0.20404    0.40109    1.000
    C20      C        0.63504    0.54596    0.84891    1.000
    C20      C        0.11496    0.70404    0.34891    1.000
    C20      C        0.61496    0.04596    0.90109    1.000
    C20      C        0.90109    0.04596    0.61496    1.000
    C20      C        0.34891    0.70404    0.11496    1.000
    C20      C        0.84891    0.54596    0.63504    1.000
    C20      C        0.40109    0.20404    0.13504    1.000
    C20      C        0.61496    0.90109    0.04596    1.000
    C20      C        0.11496    0.34891    0.70404    1.000
    C20      C        0.63504    0.84891    0.54596    1.000
    C20      C        0.13504    0.40109    0.20404    1.000
    C20      C        0.04596    0.61496    0.90109    1.000
    C20      C        0.70404    0.11496    0.34891    1.000
    C20      C        0.54596    0.63504    0.84891    1.000
    C20      C        0.20404    0.13504    0.40109    1.000
    C20      C        0.29596    0.65109    0.88504    1.000
    C20      C        0.95404    0.09891    0.38504    1.000
    C20      C        0.79596    0.59891    0.86496    1.000
    C20      C        0.45404    0.15109    0.36496    1.000
    C20      C        0.15109    0.36496    0.45404    1.000
    C20      C        0.59891    0.86496    0.79596    1.000
    C20      C        0.09891    0.38504    0.95404    1.000
    C20      C        0.65109    0.88504    0.29596    1.000
    C20      C        0.86496    0.79596    0.59891    1.000
    C20      C        0.36496    0.45404    0.15109    1.000
    C20      C        0.88504    0.29596    0.65109    1.000
    C20      C        0.38504    0.95404    0.09891    1.000
    C20      C        0.09891    0.45404    0.88504    1.000
    C20      C        0.65109    0.79596    0.38504    1.000
    C20      C        0.15109    0.95404    0.86496    1.000
    C20      C        0.59891    0.29596    0.36496    1.000
    C20      C        0.38504    0.59891    0.45404    1.000
    C20      C        0.88504    0.15109    0.79596    1.000
    C20      C        0.36496    0.65109    0.95404    1.000
    C20      C        0.86496    0.09891    0.29596    1.000
    C20      C        0.95404    0.88504    0.59891    1.000
    C20      C        0.29596    0.38504    0.15109    1.000
    C20      C        0.45404    0.86496    0.65109    1.000
    C20      C        0.79596    0.36496    0.09891    1.000
    C20      C        0.70404    0.84891    0.61496    1.000
    C20      C        0.04596    0.40109    0.11496    1.000
    C20      C        0.20404    0.90109    0.63504    1.000
    C20      C        0.54596    0.34891    0.13504    1.000
    C20      C        0.84891    0.13504    0.04596    1.000
    C20      C        0.40109    0.63504    0.70404    1.000
    C20      C        0.90109    0.11496    0.54596    1.000
    C20      C        0.34891    0.61496    0.20404    1.000
    C20      C        0.13504    0.70404    0.90109    1.000
    C20      C        0.63504    0.04596    0.34891    1.000
    C20      C        0.11496    0.20404    0.84891    1.000
    C20      C        0.61496    0.54596    0.40109    1.000
    C20      C        0.90109    0.54596    0.11496    1.000
    C20      C        0.34891    0.20404    0.61496    1.000
    C20      C        0.84891    0.04596    0.13504    1.000
    C20      C        0.40109    0.70404    0.63504    1.000
    C20      C        0.61496    0.40109    0.54596    1.000
    C20      C        0.11496    0.84891    0.20404    1.000
    C20      C        0.63504    0.34891    0.04596    1.000
    C20      C        0.13504    0.90109    0.70404    1.000
    C20      C        0.04596    0.11496    0.40109    1.000
    C20      C        0.70404    0.61496    0.84891    1.000
    C20      C        0.54596    0.13504    0.34891    1.000
    C20      C        0.20404    0.63504    0.90109    1.000
    C20      C        0.29596    0.15109    0.38504    1.000
    C20      C        0.95404    0.59891    0.88504    1.000
    C20      C        0.79596    0.09891    0.36496    1.000
    C20      C        0.45404    0.65109    0.86496    1.000
    C20      C        0.15109    0.86496    0.95404    1.000
    C20      C        0.59891    0.36496    0.29596    1.000
    C20      C        0.09891    0.88504    0.45404    1.000
    C20      C        0.65109    0.38504    0.79596    1.000
    C20      C        0.86496    0.29596    0.09891    1.000
    C20      C        0.36496    0.95404    0.65109    1.000
    C20      C        0.88504    0.79596    0.15109    1.000
    C20      C        0.38504    0.45404    0.59891    1.000
    C20      C        0.59891    0.95404    0.88504    1.000
    C20      C        0.15109    0.29596    0.38504    1.000
    C20      C        0.65109    0.45404    0.86496    1.000
    C20      C        0.09891    0.79596    0.36496    1.000
    C20      C        0.88504    0.09891    0.45404    1.000
    C20      C        0.38504    0.65109    0.79596    1.000
    C20      C        0.86496    0.15109    0.95404    1.000
    C20      C        0.36496    0.59891    0.29596    1.000
    C20      C        0.45404    0.38504    0.59891    1.000
    C20      C        0.79596    0.88504    0.15109    1.000
    C20      C        0.95404    0.36496    0.65109    1.000
    C20      C        0.29596    0.86496    0.09891    1.000
    C20      C        0.20404    0.34891    0.61496    1.000
    C20      C        0.54596    0.90109    0.11496    1.000
    C20      C        0.70404    0.40109    0.63504    1.000
    C20      C        0.04596    0.84891    0.13504    1.000
    C20      C        0.34891    0.63504    0.04596    1.000
    C20      C        0.90109    0.13504    0.70404    1.000
    C20      C        0.40109    0.61496    0.54596    1.000
    C20      C        0.84891    0.11496    0.20404    1.000
    C20      C        0.63504    0.20404    0.90109    1.000
    C20      C        0.13504    0.54596    0.34891    1.000
    C20      C        0.61496    0.70404    0.84891    1.000
    C20      C        0.11496    0.04596    0.40109    1.000
    C20      C        0.40109    0.04596    0.11496    1.000
    C20      C        0.84891    0.70404    0.61496    1.000
    C20      C        0.34891    0.54596    0.13504    1.000
    C20      C        0.90109    0.20404    0.63504    1.000
    C20      C        0.11496    0.90109    0.54596    1.000
    C20      C        0.61496    0.34891    0.20404    1.000
    C20      C        0.13504    0.84891    0.04596    1.000
    C20      C        0.63504    0.40109    0.70404    1.000
    C20      C        0.54596    0.61496    0.40109    1.000
    C20      C        0.20404    0.11496    0.84891    1.000
    C20      C        0.04596    0.63504    0.34891    1.000
    C20      C        0.70404    0.13504    0.90109    1.000
    C20      C        0.79596    0.65109    0.38504    1.000
    C20      C        0.45404    0.09891    0.88504    1.000
    C20      C        0.29596    0.59891    0.36496    1.000
    C20      C        0.95404    0.15109    0.86496    1.000
    C20      C        0.65109    0.36496    0.95404    1.000
    C20      C        0.09891    0.86496    0.29596    1.000
    C20      C        0.59891    0.38504    0.45404    1.000
    C20      C        0.15109    0.88504    0.79596    1.000
    C20      C        0.36496    0.79596    0.09891    1.000
    C20      C        0.86496    0.45404    0.65109    1.000
    C20      C        0.38504    0.29596    0.15109    1.000
    C20      C        0.88504    0.95404    0.59891    1.000
    C20      C        0.59891    0.45404    0.38504    1.000
    C20      C        0.15109    0.79596    0.88504    1.000
    C20      C        0.65109    0.95404    0.36496    1.000
    C20      C        0.09891    0.29596    0.86496    1.000
    C20      C        0.88504    0.59891    0.95404    1.000
    C20      C        0.38504    0.15109    0.29596    1.000
    C20      C        0.86496    0.65109    0.45404    1.000
    C20      C        0.36496    0.09891    0.79596    1.000
    C20      C        0.45404    0.88504    0.09891    1.000
    C20      C        0.79596    0.38504    0.65109    1.000
    C20      C        0.95404    0.86496    0.15109    1.000
    C20      C        0.29596    0.36496    0.59891    1.000
    C20      C        0.20404    0.84891    0.11496    1.000
    C20      C        0.54596    0.40109    0.61496    1.000
    C20      C        0.70404    0.90109    0.13504    1.000
    C20      C        0.04596    0.34891    0.63504    1.000
    C20      C        0.34891    0.13504    0.54596    1.000
    C20      C        0.90109    0.63504    0.20404    1.000
    C20      C        0.40109    0.11496    0.04596    1.000
    C20      C        0.84891    0.61496    0.70404    1.000
    C20      C        0.63504    0.70404    0.40109    1.000
    C20      C        0.13504    0.04596    0.84891    1.000
    C20      C        0.61496    0.20404    0.34891    1.000
    C20      C        0.11496    0.54596    0.90109    1.000
    C20      C        0.40109    0.54596    0.61496    1.000
    C20      C        0.84891    0.20404    0.11496    1.000
    C20      C        0.34891    0.04596    0.63504    1.000
    C20      C        0.90109    0.70404    0.13504    1.000
    C20      C        0.11496    0.40109    0.04596    1.000
    C20      C        0.61496    0.84891    0.70404    1.000
    C20      C        0.13504    0.34891    0.54596    1.000
    C20      C        0.63504    0.90109    0.20404    1.000
    C20      C        0.54596    0.11496    0.90109    1.000
    C20      C        0.20404    0.61496    0.34891    1.000
    C20      C        0.04596    0.13504    0.84891    1.000
    C20      C        0.70404    0.63504    0.40109    1.000
    C20      C        0.79596    0.15109    0.88504    1.000
    C20      C        0.45404    0.59891    0.38504    1.000
    C20      C        0.29596    0.09891    0.86496    1.000
    C20      C        0.95404    0.65109    0.36496    1.000
    C20      C        0.65109    0.86496    0.45404    1.000
    C20      C        0.09891    0.36496    0.79596    1.000
    C20      C        0.59891    0.88504    0.95404    1.000
    C20      C        0.15109    0.38504    0.29596    1.000
    C20      C        0.36496    0.29596    0.59891    1.000
    C20      C        0.86496    0.95404    0.15109    1.000
    C20      C        0.38504    0.79596    0.65109    1.000
    C20      C        0.88504    0.45404    0.09891    1.000
    C21      C        0.65528    0.32310    0.88883    1.000
    C21      C        0.15528    0.42690    0.36117    1.000
    C21      C        0.59472    0.82310    0.86117    1.000
    C21      C        0.38883    0.09472    0.92690    1.000
    C21      C        0.88883    0.65528    0.32310    1.000
    C21      C        0.36117    0.15528    0.42690    1.000
    C21      C        0.86117    0.59472    0.82310    1.000
    C21      C        0.92690    0.38883    0.09472    1.000
    C21      C        0.32310    0.88883    0.65528    1.000
    C21      C        0.42690    0.36117    0.15528    1.000
    C21      C        0.82310    0.86117    0.59472    1.000
    C21      C        0.67690    0.34472    0.11117    1.000
    C21      C        0.07310    0.90528    0.61117    1.000
    C21      C        0.17690    0.40528    0.13883    1.000
    C21      C        0.57310    0.84472    0.63883    1.000
    C21      C        0.84472    0.63883    0.57310    1.000
    C21      C        0.40528    0.13883    0.17690    1.000
    C21      C        0.90528    0.61117    0.07310    1.000
    C21      C        0.34472    0.11117    0.67690    1.000
    C21      C        0.13883    0.17690    0.40528    1.000
    C21      C        0.63883    0.57310    0.84472    1.000
    C21      C        0.11117    0.67690    0.34472    1.000
    C21      C        0.61117    0.07310    0.90528    1.000
    C21      C        0.90528    0.07310    0.61117    1.000
    C21      C        0.34472    0.67690    0.11117    1.000
    C21      C        0.84472    0.57310    0.63883    1.000
    C21      C        0.40528    0.17690    0.13883    1.000
    C21      C        0.61117    0.90528    0.07310    1.000
    C21      C        0.11117    0.34472    0.67690    1.000
    C21      C        0.63883    0.84472    0.57310    1.000
    C21      C        0.13883    0.40528    0.17690    1.000
    C21      C        0.07310    0.61117    0.90528    1.000
    C21      C        0.67690    0.11117    0.34472    1.000
    C21      C        0.57310    0.63883    0.84472    1.000
    C21      C        0.17690    0.13883    0.40528    1.000
    C21      C        0.32310    0.65528    0.88883    1.000
    C21      C        0.92690    0.09472    0.38883    1.000
    C21      C        0.82310    0.59472    0.86117    1.000
    C21      C        0.42690    0.15528    0.36117    1.000
    C21      C        0.15528    0.36117    0.42690    1.000
    C21      C        0.59472    0.86117    0.82310    1.000
    C21      C        0.09472    0.38883    0.92690    1.000
    C21      C        0.65528    0.88883    0.32310    1.000
    C21      C        0.86117    0.82310    0.59472    1.000
    C21      C        0.36117    0.42690    0.15528    1.000
    C21      C        0.88883    0.32310    0.65528    1.000
    C21      C        0.38883    0.92690    0.09472    1.000
    C21      C        0.09472    0.42690    0.88883    1.000
    C21      C        0.65528    0.82310    0.38883    1.000
    C21      C        0.15528    0.92690    0.86117    1.000
    C21      C        0.59472    0.32310    0.36117    1.000
    C21      C        0.38883    0.59472    0.42690    1.000
    C21      C        0.88883    0.15528    0.82310    1.000
    C21      C        0.36117    0.65528    0.92690    1.000
    C21      C        0.86117    0.09472    0.32310    1.000
    C21      C        0.92690    0.88883    0.59472    1.000
    C21      C        0.32310    0.38883    0.15528    1.000
    C21      C        0.42690    0.86117    0.65528    1.000
    C21      C        0.82310    0.36117    0.09472    1.000
    C21      C        0.67690    0.84472    0.61117    1.000
    C21      C        0.07310    0.40528    0.11117    1.000
    C21      C        0.17690    0.90528    0.63883    1.000
    C21      C        0.57310    0.34472    0.13883    1.000
    C21      C        0.84472    0.13883    0.07310    1.000
    C21      C        0.40528    0.63883    0.67690    1.000
    C21      C        0.90528    0.11117    0.57310    1.000
    C21      C        0.34472    0.61117    0.17690    1.000
    C21      C        0.13883    0.67690    0.90528    1.000
    C21      C        0.63883    0.07310    0.34472    1.000
    C21      C        0.11117    0.17690    0.84472    1.000
    C21      C        0.61117    0.57310    0.40528    1.000
    C21      C        0.90528    0.57310    0.11117    1.000
    C21      C        0.34472    0.17690    0.61117    1.000
    C21      C        0.84472    0.07310    0.13883    1.000
    C21      C        0.40528    0.67690    0.63883    1.000
    C21      C        0.61117    0.40528    0.57310    1.000
    C21      C        0.11117    0.84472    0.17690    1.000
    C21      C        0.63883    0.34472    0.07310    1.000
    C21      C        0.13883    0.90528    0.67690    1.000
    C21      C        0.07310    0.11117    0.40528    1.000
    C21      C        0.67690    0.61117    0.84472    1.000
    C21      C        0.57310    0.13883    0.34472    1.000
    C21      C        0.17690    0.63883    0.90528    1.000
    C21      C        0.32310    0.15528    0.38883    1.000
    C21      C        0.92690    0.59472    0.88883    1.000
    C21      C        0.82310    0.09472    0.36117    1.000
    C21      C        0.42690    0.65528    0.86117    1.000
    C21      C        0.15528    0.86117    0.92690    1.000
    C21      C        0.59472    0.36117    0.32310    1.000
    C21      C        0.09472    0.88883    0.42690    1.000
    C21      C        0.65528    0.38883    0.82310    1.000
    C21      C        0.86117    0.32310    0.09472    1.000
    C21      C        0.36117    0.92690    0.65528    1.000
    C21      C        0.88883    0.82310    0.15528    1.000
    C21      C        0.38883    0.42690    0.59472    1.000
    C21      C        0.59472    0.92690    0.88883    1.000
    C21      C        0.15528    0.32310    0.38883    1.000
    C21      C        0.65528    0.42690    0.86117    1.000
    C21      C        0.09472    0.82310    0.36117    1.000
    C21      C        0.88883    0.09472    0.42690    1.000
    C21      C        0.38883    0.65528    0.82310    1.000
    C21      C        0.86117    0.15528    0.92690    1.000
    C21      C        0.36117    0.59472    0.32310    1.000
    C21      C        0.42690    0.38883    0.59472    1.000
    C21      C        0.82310    0.88883    0.15528    1.000
    C21      C        0.92690    0.36117    0.65528    1.000
    C21      C        0.32310    0.86117    0.09472    1.000
    C21      C        0.17690    0.34472    0.61117    1.000
    C21      C        0.57310    0.90528    0.11117    1.000
    C21      C        0.67690    0.40528    0.63883    1.000
    C21      C        0.07310    0.84472    0.13883    1.000
    C21      C        0.34472    0.63883    0.07310    1.000
    C21      C        0.90528    0.13883    0.67690    1.000
    C21      C        0.40528    0.61117    0.57310    1.000
    C21      C        0.84472    0.11117    0.17690    1.000
    C21      C        0.63883    0.17690    0.90528    1.000
    C21      C        0.13883    0.57310    0.34472    1.000
    C21      C        0.61117    0.67690    0.84472    1.000
    C21      C        0.11117    0.07310    0.40528    1.000
    C21      C        0.40528    0.07310    0.11117    1.000
    C21      C        0.84472    0.67690    0.61117    1.000
    C21      C        0.34472    0.57310    0.13883    1.000
    C21      C        0.90528    0.17690    0.63883    1.000
    C21      C        0.11117    0.90528    0.57310    1.000
    C21      C        0.61117    0.34472    0.17690    1.000
    C21      C        0.13883    0.84472    0.07310    1.000
    C21      C        0.63883    0.40528    0.67690    1.000
    C21      C        0.57310    0.61117    0.40528    1.000
    C21      C        0.17690    0.11117    0.84472    1.000
    C21      C        0.07310    0.63883    0.34472    1.000
    C21      C        0.67690    0.13883    0.90528    1.000
    C21      C        0.82310    0.65528    0.38883    1.000
    C21      C        0.42690    0.09472    0.88883    1.000
    C21      C        0.32310    0.59472    0.36117    1.000
    C21      C        0.92690    0.15528    0.86117    1.000
    C21      C        0.65528    0.36117    0.92690    1.000
    C21      C        0.09472    0.86117    0.32310    1.000
    C21      C        0.59472    0.38883    0.42690    1.000
    C21      C        0.15528    0.88883    0.82310    1.000
    C21      C        0.36117    0.82310    0.09472    1.000
    C21      C        0.86117    0.42690    0.65528    1.000
    C21      C        0.38883    0.32310    0.15528    1.000
    C21      C        0.88883    0.92690    0.59472    1.000
    C21      C        0.59472    0.42690    0.38883    1.000
    C21      C        0.15528    0.82310    0.88883    1.000
    C21      C        0.65528    0.92690    0.36117    1.000
    C21      C        0.09472    0.32310    0.86117    1.000
    C21      C        0.88883    0.59472    0.92690    1.000
    C21      C        0.38883    0.15528    0.32310    1.000
    C21      C        0.86117    0.65528    0.42690    1.000
    C21      C        0.36117    0.09472    0.82310    1.000
    C21      C        0.42690    0.88883    0.09472    1.000
    C21      C        0.82310    0.38883    0.65528    1.000
    C21      C        0.92690    0.86117    0.15528    1.000
    C21      C        0.32310    0.36117    0.59472    1.000
    C21      C        0.17690    0.84472    0.11117    1.000
    C21      C        0.57310    0.40528    0.61117    1.000
    C21      C        0.67690    0.90528    0.13883    1.000
    C21      C        0.07310    0.34472    0.63883    1.000
    C21      C        0.34472    0.13883    0.57310    1.000
    C21      C        0.90528    0.63883    0.17690    1.000
    C21      C        0.40528    0.11117    0.07310    1.000
    C21      C        0.84472    0.61117    0.67690    1.000
    C21      C        0.63883    0.67690    0.40528    1.000
    C21      C        0.13883    0.07310    0.84472    1.000
    C21      C        0.61117    0.17690    0.34472    1.000
    C21      C        0.11117    0.57310    0.90528    1.000
    C21      C        0.40528    0.57310    0.61117    1.000
    C21      C        0.84472    0.17690    0.11117    1.000
    C21      C        0.34472    0.07310    0.63883    1.000
    C21      C        0.90528    0.67690    0.13883    1.000
    C21      C        0.11117    0.40528    0.07310    1.000
    C21      C        0.61117    0.84472    0.67690    1.000
    C21      C        0.13883    0.34472    0.57310    1.000
    C21      C        0.63883    0.90528    0.17690    1.000
    C21      C        0.57310    0.11117    0.90528    1.000
    C21      C        0.17690    0.61117    0.34472    1.000
    C21      C        0.07310    0.13883    0.84472    1.000
    C21      C        0.67690    0.63883    0.40528    1.000
    C21      C        0.82310    0.15528    0.88883    1.000
    C21      C        0.42690    0.59472    0.38883    1.000
    C21      C        0.32310    0.09472    0.86117    1.000
    C21      C        0.92690    0.65528    0.36117    1.000
    C21      C        0.65528    0.86117    0.42690    1.000
    C21      C        0.09472    0.36117    0.82310    1.000
    C21      C        0.59472    0.88883    0.92690    1.000
    C21      C        0.15528    0.38883    0.32310    1.000
    C21      C        0.36117    0.32310    0.59472    1.000
    C21      C        0.86117    0.92690    0.15528    1.000
    C21      C        0.38883    0.82310    0.65528    1.000
    C21      C        0.88883    0.42690    0.09472    1.000
    C22      C        0.63970    0.34071    0.87309    1.000
    C22      C        0.13970    0.40929    0.37691    1.000
    C22      C        0.61030    0.84071    0.87691    1.000
    C22      C        0.37309    0.11030    0.90929    1.000
    C22      C        0.87309    0.63970    0.34071    1.000
    C22      C        0.37691    0.13970    0.40929    1.000
    C22      C        0.87691    0.61030    0.84071    1.000
    C22      C        0.90929    0.37309    0.11030    1.000
    C22      C        0.34071    0.87309    0.63970    1.000
    C22      C        0.40929    0.37691    0.13970    1.000
    C22      C        0.84071    0.87691    0.61030    1.000
    C22      C        0.65929    0.36030    0.12691    1.000
    C22      C        0.09071    0.88970    0.62691    1.000
    C22      C        0.15929    0.38970    0.12309    1.000
    C22      C        0.59071    0.86030    0.62309    1.000
    C22      C        0.86030    0.62309    0.59071    1.000
    C22      C        0.38970    0.12309    0.15929    1.000
    C22      C        0.88970    0.62691    0.09071    1.000
    C22      C        0.36030    0.12691    0.65929    1.000
    C22      C        0.12309    0.15929    0.38970    1.000
    C22      C        0.62309    0.59071    0.86030    1.000
    C22      C        0.12691    0.65929    0.36030    1.000
    C22      C        0.62691    0.09071    0.88970    1.000
    C22      C        0.88970    0.09071    0.62691    1.000
    C22      C        0.36030    0.65929    0.12691    1.000
    C22      C        0.86030    0.59071    0.62309    1.000
    C22      C        0.38970    0.15929    0.12309    1.000
    C22      C        0.62691    0.88970    0.09071    1.000
    C22      C        0.12691    0.36030    0.65929    1.000
    C22      C        0.62309    0.86030    0.59071    1.000
    C22      C        0.12309    0.38970    0.15929    1.000
    C22      C        0.09071    0.62691    0.88970    1.000
    C22      C        0.65929    0.12691    0.36030    1.000
    C22      C        0.59071    0.62309    0.86030    1.000
    C22      C        0.15929    0.12309    0.38970    1.000
    C22      C        0.34071    0.63970    0.87309    1.000
    C22      C        0.90929    0.11030    0.37309    1.000
    C22      C        0.84071    0.61030    0.87691    1.000
    C22      C        0.40929    0.13970    0.37691    1.000
    C22      C        0.13970    0.37691    0.40929    1.000
    C22      C        0.61030    0.87691    0.84071    1.000
    C22      C        0.11030    0.37309    0.90929    1.000
    C22      C        0.63970    0.87309    0.34071    1.000
    C22      C        0.87691    0.84071    0.61030    1.000
    C22      C        0.37691    0.40929    0.13970    1.000
    C22      C        0.87309    0.34071    0.63970    1.000
    C22      C        0.37309    0.90929    0.11030    1.000
    C22      C        0.11030    0.40929    0.87309    1.000
    C22      C        0.63970    0.84071    0.37309    1.000
    C22      C        0.13970    0.90929    0.87691    1.000
    C22      C        0.61030    0.34071    0.37691    1.000
    C22      C        0.37309    0.61030    0.40929    1.000
    C22      C        0.87309    0.13970    0.84071    1.000
    C22      C        0.37691    0.63970    0.90929    1.000
    C22      C        0.87691    0.11030    0.34071    1.000
    C22      C        0.90929    0.87309    0.61030    1.000
    C22      C        0.34071    0.37309    0.13970    1.000
    C22      C        0.40929    0.87691    0.63970    1.000
    C22      C        0.84071    0.37691    0.11030    1.000
    C22      C        0.65929    0.86030    0.62691    1.000
    C22      C        0.09071    0.38970    0.12691    1.000
    C22      C        0.15929    0.88970    0.62309    1.000
    C22      C        0.59071    0.36030    0.12309    1.000
    C22      C        0.86030    0.12309    0.09071    1.000
    C22      C        0.38970    0.62309    0.65929    1.000
    C22      C        0.88970    0.12691    0.59071    1.000
    C22      C        0.36030    0.62691    0.15929    1.000
    C22      C        0.12309    0.65929    0.88970    1.000
    C22      C        0.62309    0.09071    0.36030    1.000
    C22      C        0.12691    0.15929    0.86030    1.000
    C22      C        0.62691    0.59071    0.38970    1.000
    C22      C        0.88970    0.59071    0.12691    1.000
    C22      C        0.36030    0.15929    0.62691    1.000
    C22      C        0.86030    0.09071    0.12309    1.000
    C22      C        0.38970    0.65929    0.62309    1.000
    C22      C        0.62691    0.38970    0.59071    1.000
    C22      C        0.12691    0.86030    0.15929    1.000
    C22      C        0.62309    0.36030    0.09071    1.000
    C22      C        0.12309    0.88970    0.65929    1.000
    C22      C        0.09071    0.12691    0.38970    1.000
    C22      C        0.65929    0.62691    0.86030    1.000
    C22      C        0.59071    0.12309    0.36030    1.000
    C22      C        0.15929    0.62309    0.88970    1.000
    C22      C        0.34071    0.13970    0.37309    1.000
    C22      C        0.90929    0.61030    0.87309    1.000
    C22      C        0.84071    0.11030    0.37691    1.000
    C22      C        0.40929    0.63970    0.87691    1.000
    C22      C        0.13970    0.87691    0.90929    1.000
    C22      C        0.61030    0.37691    0.34071    1.000
    C22      C        0.11030    0.87309    0.40929    1.000
    C22      C        0.63970    0.37309    0.84071    1.000
    C22      C        0.87691    0.34071    0.11030    1.000
    C22      C        0.37691    0.90929    0.63970    1.000
    C22      C        0.87309    0.84071    0.13970    1.000
    C22      C        0.37309    0.40929    0.61030    1.000
    C22      C        0.61030    0.90929    0.87309    1.000
    C22      C        0.13970    0.34071    0.37309    1.000
    C22      C        0.63970    0.40929    0.87691    1.000
    C22      C        0.11030    0.84071    0.37691    1.000
    C22      C        0.87309    0.11030    0.40929    1.000
    C22      C        0.37309    0.63970    0.84071    1.000
    C22      C        0.87691    0.13970    0.90929    1.000
    C22      C        0.37691    0.61030    0.34071    1.000
    C22      C        0.40929    0.37309    0.61030    1.000
    C22      C        0.84071    0.87309    0.13970    1.000
    C22      C        0.90929    0.37691    0.63970    1.000
    C22      C        0.34071    0.87691    0.11030    1.000
    C22      C        0.15929    0.36030    0.62691    1.000
    C22      C        0.59071    0.88970    0.12691    1.000
    C22      C        0.65929    0.38970    0.62309    1.000
    C22      C        0.09071    0.86030    0.12309    1.000
    C22      C        0.36030    0.62309    0.09071    1.000
    C22      C        0.88970    0.12309    0.65929    1.000
    C22      C        0.38970    0.62691    0.59071    1.000
    C22      C        0.86030    0.12691    0.15929    1.000
    C22      C        0.62309    0.15929    0.88970    1.000
    C22      C        0.12309    0.59071    0.36030    1.000
    C22      C        0.62691    0.65929    0.86030    1.000
    C22      C        0.12691    0.09071    0.38970    1.000
    C22      C        0.38970    0.09071    0.12691    1.000
    C22      C        0.86030    0.65929    0.62691    1.000
    C22      C        0.36030    0.59071    0.12309    1.000
    C22      C        0.88970    0.15929    0.62309    1.000
    C22      C        0.12691    0.88970    0.59071    1.000
    C22      C        0.62691    0.36030    0.15929    1.000
    C22      C        0.12309    0.86030    0.09071    1.000
    C22      C        0.62309    0.38970    0.65929    1.000
    C22      C        0.59071    0.62691    0.38970    1.000
    C22      C        0.15929    0.12691    0.86030    1.000
    C22      C        0.09071    0.62309    0.36030    1.000
    C22      C        0.65929    0.12309    0.88970    1.000
    C22      C        0.84071    0.63970    0.37309    1.000
    C22      C        0.40929    0.11030    0.87309    1.000
    C22      C        0.34071    0.61030    0.37691    1.000
    C22      C        0.90929    0.13970    0.87691    1.000
    C22      C        0.63970    0.37691    0.90929    1.000
    C22      C        0.11030    0.87691    0.34071    1.000
    C22      C        0.61030    0.37309    0.40929    1.000
    C22      C        0.13970    0.87309    0.84071    1.000
    C22      C        0.37691    0.84071    0.11030    1.000
    C22      C        0.87691    0.40929    0.63970    1.000
    C22      C        0.37309    0.34071    0.13970    1.000
    C22      C        0.87309    0.90929    0.61030    1.000
    C22      C        0.61030    0.40929    0.37309    1.000
    C22      C        0.13970    0.84071    0.87309    1.000
    C22      C        0.63970    0.90929    0.37691    1.000
    C22      C        0.11030    0.34071    0.87691    1.000
    C22      C        0.87309    0.61030    0.90929    1.000
    C22      C        0.37309    0.13970    0.34071    1.000
    C22      C        0.87691    0.63970    0.40929    1.000
    C22      C        0.37691    0.11030    0.84071    1.000
    C22      C        0.40929    0.87309    0.11030    1.000
    C22      C        0.84071    0.37309    0.63970    1.000
    C22      C        0.90929    0.87691    0.13970    1.000
    C22      C        0.34071    0.37691    0.61030    1.000
    C22      C        0.15929    0.86030    0.12691    1.000
    C22      C        0.59071    0.38970    0.62691    1.000
    C22      C        0.65929    0.88970    0.12309    1.000
    C22      C        0.09071    0.36030    0.62309    1.000
    C22      C        0.36030    0.12309    0.59071    1.000
    C22      C        0.88970    0.62309    0.15929    1.000
    C22      C        0.38970    0.12691    0.09071    1.000
    C22      C        0.86030    0.62691    0.65929    1.000
    C22      C        0.62309    0.65929    0.38970    1.000
    C22      C        0.12309    0.09071    0.86030    1.000
    C22      C        0.62691    0.15929    0.36030    1.000
    C22      C        0.12691    0.59071    0.88970    1.000
    C22      C        0.38970    0.59071    0.62691    1.000
    C22      C        0.86030    0.15929    0.12691    1.000
    C22      C        0.36030    0.09071    0.62309    1.000
    C22      C        0.88970    0.65929    0.12309    1.000
    C22      C        0.12691    0.38970    0.09071    1.000
    C22      C        0.62691    0.86030    0.65929    1.000
    C22      C        0.12309    0.36030    0.59071    1.000
    C22      C        0.62309    0.88970    0.15929    1.000
    C22      C        0.59071    0.12691    0.88970    1.000
    C22      C        0.15929    0.62691    0.36030    1.000
    C22      C        0.09071    0.12309    0.86030    1.000
    C22      C        0.65929    0.62309    0.38970    1.000
    C22      C        0.84071    0.13970    0.87309    1.000
    C22      C        0.40929    0.61030    0.37309    1.000
    C22      C        0.34071    0.11030    0.87691    1.000
    C22      C        0.90929    0.63970    0.37691    1.000
    C22      C        0.63970    0.87691    0.40929    1.000
    C22      C        0.11030    0.37691    0.84071    1.000
    C22      C        0.61030    0.87309    0.90929    1.000
    C22      C        0.13970    0.37309    0.34071    1.000
    C22      C        0.37691    0.34071    0.61030    1.000
    C22      C        0.87691    0.90929    0.13970    1.000
    C22      C        0.37309    0.84071    0.63970    1.000
    C22      C        0.87309    0.40929    0.11030    1.000
    C23      C        0.64231    0.32589    0.87950    1.000
    C23      C        0.14231    0.42411    0.37050    1.000
    C23      C        0.60769    0.82589    0.87050    1.000
    C23      C        0.37950    0.10769    0.92411    1.000
    C23      C        0.87950    0.64231    0.32589    1.000
    C23      C        0.37050    0.14231    0.42411    1.000
    C23      C        0.87050    0.60769    0.82589    1.000
    C23      C        0.92411    0.37950    0.10769    1.000
    C23      C        0.32589    0.87950    0.64231    1.000
    C23      C        0.42411    0.37050    0.14231    1.000
    C23      C        0.82589    0.87050    0.60769    1.000
    C23      C        0.67411    0.35769    0.12050    1.000
    C23      C        0.07589    0.89231    0.62050    1.000
    C23      C        0.17411    0.39231    0.12950    1.000
    C23      C        0.57589    0.85769    0.62950    1.000
    C23      C        0.85769    0.62950    0.57589    1.000
    C23      C        0.39231    0.12950    0.17411    1.000
    C23      C        0.89231    0.62050    0.07589    1.000
    C23      C        0.35769    0.12050    0.67411    1.000
    C23      C        0.12950    0.17411    0.39231    1.000
    C23      C        0.62950    0.57589    0.85769    1.000
    C23      C        0.12050    0.67411    0.35769    1.000
    C23      C        0.62050    0.07589    0.89231    1.000
    C23      C        0.89231    0.07589    0.62050    1.000
    C23      C        0.35769    0.67411    0.12050    1.000
    C23      C        0.85769    0.57589    0.62950    1.000
    C23      C        0.39231    0.17411    0.12950    1.000
    C23      C        0.62050    0.89231    0.07589    1.000
    C23      C        0.12050    0.35769    0.67411    1.000
    C23      C        0.62950    0.85769    0.57589    1.000
    C23      C        0.12950    0.39231    0.17411    1.000
    C23      C        0.07589    0.62050    0.89231    1.000
    C23      C        0.67411    0.12050    0.35769    1.000
    C23      C        0.57589    0.62950    0.85769    1.000
    C23      C        0.17411    0.12950    0.39231    1.000
    C23      C        0.32589    0.64231    0.87950    1.000
    C23      C        0.92411    0.10769    0.37950    1.000
    C23      C        0.82589    0.60769    0.87050    1.000
    C23      C        0.42411    0.14231    0.37050    1.000
    C23      C        0.14231    0.37050    0.42411    1.000
    C23      C        0.60769    0.87050    0.82589    1.000
    C23      C        0.10769    0.37950    0.92411    1.000
    C23      C        0.64231    0.87950    0.32589    1.000
    C23      C        0.87050    0.82589    0.60769    1.000
    C23      C        0.37050    0.42411    0.14231    1.000
    C23      C        0.87950    0.32589    0.64231    1.000
    C23      C        0.37950    0.92411    0.10769    1.000
    C23      C        0.10769    0.42411    0.87950    1.000
    C23      C        0.64231    0.82589    0.37950    1.000
    C23      C        0.14231    0.92411    0.87050    1.000
    C23      C        0.60769    0.32589    0.37050    1.000
    C23      C        0.37950    0.60769    0.42411    1.000
    C23      C        0.87950    0.14231    0.82589    1.000
    C23      C        0.37050    0.64231    0.92411    1.000
    C23      C        0.87050    0.10769    0.32589    1.000
    C23      C        0.92411    0.87950    0.60769    1.000
    C23      C        0.32589    0.37950    0.14231    1.000
    C23      C        0.42411    0.87050    0.64231    1.000
    C23      C        0.82589    0.37050    0.10769    1.000
    C23      C        0.67411    0.85769    0.62050    1.000
    C23      C        0.07589    0.39231    0.12050    1.000
    C23      C        0.17411    0.89231    0.62950    1.000
    C23      C        0.57589    0.35769    0.12950    1.000
    C23      C        0.85769    0.12950    0.07589    1.000
    C23      C        0.39231    0.62950    0.67411    1.000
    C23      C        0.89231    0.12050    0.57589    1.000
    C23      C        0.35769    0.62050    0.17411    1.000
    C23      C        0.12950    0.67411    0.89231    1.000
    C23      C        0.62950    0.07589    0.35769    1.000
    C23      C        0.12050    0.17411    0.85769    1.000
    C23      C        0.62050    0.57589    0.39231    1.000
    C23      C        0.89231    0.57589    0.12050    1.000
    C23      C        0.35769    0.17411    0.62050    1.000
    C23      C        0.85769    0.07589    0.12950    1.000
    C23      C        0.39231    0.67411    0.62950    1.000
    C23      C        0.62050    0.39231    0.57589    1.000
    C23      C        0.12050    0.85769    0.17411    1.000
    C23      C        0.62950    0.35769    0.07589    1.000
    C23      C        0.12950    0.89231    0.67411    1.000
    C23      C        0.07589    0.12050    0.39231    1.000
    C23      C        0.67411    0.62050    0.85769    1.000
    C23      C        0.57589    0.12950    0.35769    1.000
    C23      C        0.17411    0.62950    0.89231    1.000
    C23      C        0.32589    0.14231    0.37950    1.000
    C23      C        0.92411    0.60769    0.87950    1.000
    C23      C        0.82589    0.10769    0.37050    1.000
    C23      C        0.42411    0.64231    0.87050    1.000
    C23      C        0.14231    0.87050    0.92411    1.000
    C23      C        0.60769    0.37050    0.32589    1.000
    C23      C        0.10769    0.87950    0.42411    1.000
    C23      C        0.64231    0.37950    0.82589    1.000
    C23      C        0.87050    0.32589    0.10769    1.000
    C23      C        0.37050    0.92411    0.64231    1.000
    C23      C        0.87950    0.82589    0.14231    1.000
    C23      C        0.37950    0.42411    0.60769    1.000
    C23      C        0.60769    0.92411    0.87950    1.000
    C23      C        0.14231    0.32589    0.37950    1.000
    C23      C        0.64231    0.42411    0.87050    1.000
    C23      C        0.10769    0.82589    0.37050    1.000
    C23      C        0.87950    0.10769    0.42411    1.000
    C23      C        0.37950    0.64231    0.82589    1.000
    C23      C        0.87050    0.14231    0.92411    1.000
    C23      C        0.37050    0.60769    0.32589    1.000
    C23      C        0.42411    0.37950    0.60769    1.000
    C23      C        0.82589    0.87950    0.14231    1.000
    C23      C        0.92411    0.37050    0.64231    1.000
    C23      C        0.32589    0.87050    0.10769    1.000
    C23      C        0.17411    0.35769    0.62050    1.000
    C23      C        0.57589    0.89231    0.12050    1.000
    C23      C        0.67411    0.39231    0.62950    1.000
    C23      C        0.07589    0.85769    0.12950    1.000
    C23      C        0.35769    0.62950    0.07589    1.000
    C23      C        0.89231    0.12950    0.67411    1.000
    C23      C        0.39231    0.62050    0.57589    1.000
    C23      C        0.85769    0.12050    0.17411    1.000
    C23      C        0.62950    0.17411    0.89231    1.000
    C23      C        0.12950    0.57589    0.35769    1.000
    C23      C        0.62050    0.67411    0.85769    1.000
    C23      C        0.12050    0.07589    0.39231    1.000
    C23      C        0.39231    0.07589    0.12050    1.000
    C23      C        0.85769    0.67411    0.62050    1.000
    C23      C        0.35769    0.57589    0.12950    1.000
    C23      C        0.89231    0.17411    0.62950    1.000
    C23      C        0.12050    0.89231    0.57589    1.000
    C23      C        0.62050    0.35769    0.17411    1.000
    C23      C        0.12950    0.85769    0.07589    1.000
    C23      C        0.62950    0.39231    0.67411    1.000
    C23      C        0.57589    0.62050    0.39231    1.000
    C23      C        0.17411    0.12050    0.85769    1.000
    C23      C        0.07589    0.62950    0.35769    1.000
    C23      C        0.67411    0.12950    0.89231    1.000
    C23      C        0.82589    0.64231    0.37950    1.000
    C23      C        0.42411    0.10769    0.87950    1.000
    C23      C        0.32589    0.60769    0.37050    1.000
    C23      C        0.92411    0.14231    0.87050    1.000
    C23      C        0.64231    0.37050    0.92411    1.000
    C23      C        0.10769    0.87050    0.32589    1.000
    C23      C        0.60769    0.37950    0.42411    1.000
    C23      C        0.14231    0.87950    0.82589    1.000
    C23      C        0.37050    0.82589    0.10769    1.000
    C23      C        0.87050    0.42411    0.64231    1.000
    C23      C        0.37950    0.32589    0.14231    1.000
    C23      C        0.87950    0.92411    0.60769    1.000
    C23      C        0.60769    0.42411    0.37950    1.000
    C23      C        0.14231    0.82589    0.87950    1.000
    C23      C        0.64231    0.92411    0.37050    1.000
    C23      C        0.10769    0.32589    0.87050    1.000
    C23      C        0.87950    0.60769    0.92411    1.000
    C23      C        0.37950    0.14231    0.32589    1.000
    C23      C        0.87050    0.64231    0.42411    1.000
    C23      C        0.37050    0.10769    0.82589    1.000
    C23      C        0.42411    0.87950    0.10769    1.000
    C23      C        0.82589    0.37950    0.64231    1.000
    C23      C        0.92411    0.87050    0.14231    1.000
    C23      C        0.32589    0.37050    0.60769    1.000
    C23      C        0.17411    0.85769    0.12050    1.000
    C23      C        0.57589    0.39231    0.62050    1.000
    C23      C        0.67411    0.89231    0.12950    1.000
    C23      C        0.07589    0.35769    0.62950    1.000
    C23      C        0.35769    0.12950    0.57589    1.000
    C23      C        0.89231    0.62950    0.17411    1.000
    C23      C        0.39231    0.12050    0.07589    1.000
    C23      C        0.85769    0.62050    0.67411    1.000
    C23      C        0.62950    0.67411    0.39231    1.000
    C23      C        0.12950    0.07589    0.85769    1.000
    C23      C        0.62050    0.17411    0.35769    1.000
    C23      C        0.12050    0.57589    0.89231    1.000
    C23      C        0.39231    0.57589    0.62050    1.000
    C23      C        0.85769    0.17411    0.12050    1.000
    C23      C        0.35769    0.07589    0.62950    1.000
    C23      C        0.89231    0.67411    0.12950    1.000
    C23      C        0.12050    0.39231    0.07589    1.000
    C23      C        0.62050    0.85769    0.67411    1.000
    C23      C        0.12950    0.35769    0.57589    1.000
    C23      C        0.62950    0.89231    0.17411    1.000
    C23      C        0.57589    0.12050    0.89231    1.000
    C23      C        0.17411    0.62050    0.35769    1.000
    C23      C        0.07589    0.12950    0.85769    1.000
    C23      C        0.67411    0.62950    0.39231    1.000
    C23      C        0.82589    0.14231    0.87950    1.000
    C23      C        0.42411    0.60769    0.37950    1.000
    C23      C        0.32589    0.10769    0.87050    1.000
    C23      C        0.92411    0.64231    0.37050    1.000
    C23      C        0.64231    0.87050    0.42411    1.000
    C23      C        0.10769    0.37050    0.82589    1.000
    C23      C        0.60769    0.87950    0.92411    1.000
    C23      C        0.14231    0.37950    0.32589    1.000
    C23      C        0.37050    0.32589    0.60769    1.000
    C23      C        0.87050    0.92411    0.14231    1.000
    C23      C        0.37950    0.82589    0.64231    1.000
    C23      C        0.87950    0.42411    0.10769    1.000
    C24      C        0.63776    0.29836    0.87746    1.000
    C24      C        0.13776    0.45164    0.37254    1.000
    C24      C        0.61224    0.79836    0.87254    1.000
    C24      C        0.37746    0.11224    0.95164    1.000
    C24      C        0.87746    0.63776    0.29836    1.000
    C24      C        0.37254    0.13776    0.45164    1.000
    C24      C        0.87254    0.61224    0.79836    1.000
    C24      C        0.95164    0.37746    0.11224    1.000
    C24      C        0.29836    0.87746    0.63776    1.000
    C24      C        0.45164    0.37254    0.13776    1.000
    C24      C        0.79836    0.87254    0.61224    1.000
    C24      C        0.70164    0.36224    0.12254    1.000
    C24      C        0.04836    0.88776    0.62254    1.000
    C24      C        0.20164    0.38776    0.12746    1.000
    C24      C        0.54836    0.86224    0.62746    1.000
    C24      C        0.86224    0.62746    0.54836    1.000
    C24      C        0.38776    0.12746    0.20164    1.000
    C24      C        0.88776    0.62254    0.04836    1.000
    C24      C        0.36224    0.12254    0.70164    1.000
    C24      C        0.12746    0.20164    0.38776    1.000
    C24      C        0.62746    0.54836    0.86224    1.000
    C24      C        0.12254    0.70164    0.36224    1.000
    C24      C        0.62254    0.04836    0.88776    1.000
    C24      C        0.88776    0.04836    0.62254    1.000
    C24      C        0.36224    0.70164    0.12254    1.000
    C24      C        0.86224    0.54836    0.62746    1.000
    C24      C        0.38776    0.20164    0.12746    1.000
    C24      C        0.62254    0.88776    0.04836    1.000
    C24      C        0.12254    0.36224    0.70164    1.000
    C24      C        0.62746    0.86224    0.54836    1.000
    C24      C        0.12746    0.38776    0.20164    1.000
    C24      C        0.04836    0.62254    0.88776    1.000
    C24      C        0.70164    0.12254    0.36224    1.000
    C24      C        0.54836    0.62746    0.86224    1.000
    C24      C        0.20164    0.12746    0.38776    1.000
    C24      C        0.29836    0.63776    0.87746    1.000
    C24      C        0.95164    0.11224    0.37746    1.000
    C24      C        0.79836    0.61224    0.87254    1.000
    C24      C        0.45164    0.13776    0.37254    1.000
    C24      C        0.13776    0.37254    0.45164    1.000
    C24      C        0.61224    0.87254    0.79836    1.000
    C24      C        0.11224    0.37746    0.95164    1.000
    C24      C        0.63776    0.87746    0.29836    1.000
    C24      C        0.87254    0.79836    0.61224    1.000
    C24      C        0.37254    0.45164    0.13776    1.000
    C24      C        0.87746    0.29836    0.63776    1.000
    C24      C        0.37746    0.95164    0.11224    1.000
    C24      C        0.11224    0.45164    0.87746    1.000
    C24      C        0.63776    0.79836    0.37746    1.000
    C24      C        0.13776    0.95164    0.87254    1.000
    C24      C        0.61224    0.29836    0.37254    1.000
    C24      C        0.37746    0.61224    0.45164    1.000
    C24      C        0.87746    0.13776    0.79836    1.000
    C24      C        0.37254    0.63776    0.95164    1.000
    C24      C        0.87254    0.11224    0.29836    1.000
    C24      C        0.95164    0.87746    0.61224    1.000
    C24      C        0.29836    0.37746    0.13776    1.000
    C24      C        0.45164    0.87254    0.63776    1.000
    C24      C        0.79836    0.37254    0.11224    1.000
    C24      C        0.70164    0.86224    0.62254    1.000
    C24      C        0.04836    0.38776    0.12254    1.000
    C24      C        0.20164    0.88776    0.62746    1.000
    C24      C        0.54836    0.36224    0.12746    1.000
    C24      C        0.86224    0.12746    0.04836    1.000
    C24      C        0.38776    0.62746    0.70164    1.000
    C24      C        0.88776    0.12254    0.54836    1.000
    C24      C        0.36224    0.62254    0.20164    1.000
    C24      C        0.12746    0.70164    0.88776    1.000
    C24      C        0.62746    0.04836    0.36224    1.000
    C24      C        0.12254    0.20164    0.86224    1.000
    C24      C        0.62254    0.54836    0.38776    1.000
    C24      C        0.88776    0.54836    0.12254    1.000
    C24      C        0.36224    0.20164    0.62254    1.000
    C24      C        0.86224    0.04836    0.12746    1.000
    C24      C        0.38776    0.70164    0.62746    1.000
    C24      C        0.62254    0.38776    0.54836    1.000
    C24      C        0.12254    0.86224    0.20164    1.000
    C24      C        0.62746    0.36224    0.04836    1.000
    C24      C        0.12746    0.88776    0.70164    1.000
    C24      C        0.04836    0.12254    0.38776    1.000
    C24      C        0.70164    0.62254    0.86224    1.000
    C24      C        0.54836    0.12746    0.36224    1.000
    C24      C        0.20164    0.62746    0.88776    1.000
    C24      C        0.29836    0.13776    0.37746    1.000
    C24      C        0.95164    0.61224    0.87746    1.000
    C24      C        0.79836    0.11224    0.37254    1.000
    C24      C        0.45164    0.63776    0.87254    1.000
    C24      C        0.13776    0.87254    0.95164    1.000
    C24      C        0.61224    0.37254    0.29836    1.000
    C24      C        0.11224    0.87746    0.45164    1.000
    C24      C        0.63776    0.37746    0.79836    1.000
    C24      C        0.87254    0.29836    0.11224    1.000
    C24      C        0.37254    0.95164    0.63776    1.000
    C24      C        0.87746    0.79836    0.13776    1.000
    C24      C        0.37746    0.45164    0.61224    1.000
    C24      C        0.61224    0.95164    0.87746    1.000
    C24      C        0.13776    0.29836    0.37746    1.000
    C24      C        0.63776    0.45164    0.87254    1.000
    C24      C        0.11224    0.79836    0.37254    1.000
    C24      C        0.87746    0.11224    0.45164    1.000
    C24      C        0.37746    0.63776    0.79836    1.000
    C24      C        0.87254    0.13776    0.95164    1.000
    C24      C        0.37254    0.61224    0.29836    1.000
    C24      C        0.45164    0.37746    0.61224    1.000
    C24      C        0.79836    0.87746    0.13776    1.000
    C24      C        0.95164    0.37254    0.63776    1.000
    C24      C        0.29836    0.87254    0.11224    1.000
    C24      C        0.20164    0.36224    0.62254    1.000
    C24      C        0.54836    0.88776    0.12254    1.000
    C24      C        0.70164    0.38776    0.62746    1.000
    C24      C        0.04836    0.86224    0.12746    1.000
    C24      C        0.36224    0.62746    0.04836    1.000
    C24      C        0.88776    0.12746    0.70164    1.000
    C24      C        0.38776    0.62254    0.54836    1.000
    C24      C        0.86224    0.12254    0.20164    1.000
    C24      C        0.62746    0.20164    0.88776    1.000
    C24      C        0.12746    0.54836    0.36224    1.000
    C24      C        0.62254    0.70164    0.86224    1.000
    C24      C        0.12254    0.04836    0.38776    1.000
    C24      C        0.38776    0.04836    0.12254    1.000
    C24      C        0.86224    0.70164    0.62254    1.000
    C24      C        0.36224    0.54836    0.12746    1.000
    C24      C        0.88776    0.20164    0.62746    1.000
    C24      C        0.12254    0.88776    0.54836    1.000
    C24      C        0.62254    0.36224    0.20164    1.000
    C24      C        0.12746    0.86224    0.04836    1.000
    C24      C        0.62746    0.38776    0.70164    1.000
    C24      C        0.54836    0.62254    0.38776    1.000
    C24      C        0.20164    0.12254    0.86224    1.000
    C24      C        0.04836    0.62746    0.36224    1.000
    C24      C        0.70164    0.12746    0.88776    1.000
    C24      C        0.79836    0.63776    0.37746    1.000
    C24      C        0.45164    0.11224    0.87746    1.000
    C24      C        0.29836    0.61224    0.37254    1.000
    C24      C        0.95164    0.13776    0.87254    1.000
    C24      C        0.63776    0.37254    0.95164    1.000
    C24      C        0.11224    0.87254    0.29836    1.000
    C24      C        0.61224    0.37746    0.45164    1.000
    C24      C        0.13776    0.87746    0.79836    1.000
    C24      C        0.37254    0.79836    0.11224    1.000
    C24      C        0.87254    0.45164    0.63776    1.000
    C24      C        0.37746    0.29836    0.13776    1.000
    C24      C        0.87746    0.95164    0.61224    1.000
    C24      C        0.61224    0.45164    0.37746    1.000
    C24      C        0.13776    0.79836    0.87746    1.000
    C24      C        0.63776    0.95164    0.37254    1.000
    C24      C        0.11224    0.29836    0.87254    1.000
    C24      C        0.87746    0.61224    0.95164    1.000
    C24      C        0.37746    0.13776    0.29836    1.000
    C24      C        0.87254    0.63776    0.45164    1.000
    C24      C        0.37254    0.11224    0.79836    1.000
    C24      C        0.45164    0.87746    0.11224    1.000
    C24      C        0.79836    0.37746    0.63776    1.000
    C24      C        0.95164    0.87254    0.13776    1.000
    C24      C        0.29836    0.37254    0.61224    1.000
    C24      C        0.20164    0.86224    0.12254    1.000
    C24      C        0.54836    0.38776    0.62254    1.000
    C24      C        0.70164    0.88776    0.12746    1.000
    C24      C        0.04836    0.36224    0.62746    1.000
    C24      C        0.36224    0.12746    0.54836    1.000
    C24      C        0.88776    0.62746    0.20164    1.000
    C24      C        0.38776    0.12254    0.04836    1.000
    C24      C        0.86224    0.62254    0.70164    1.000
    C24      C        0.62746    0.70164    0.38776    1.000
    C24      C        0.12746    0.04836    0.86224    1.000
    C24      C        0.62254    0.20164    0.36224    1.000
    C24      C        0.12254    0.54836    0.88776    1.000
    C24      C        0.38776    0.54836    0.62254    1.000
    C24      C        0.86224    0.20164    0.12254    1.000
    C24      C        0.36224    0.04836    0.62746    1.000
    C24      C        0.88776    0.70164    0.12746    1.000
    C24      C        0.12254    0.38776    0.04836    1.000
    C24      C        0.62254    0.86224    0.70164    1.000
    C24      C        0.12746    0.36224    0.54836    1.000
    C24      C        0.62746    0.88776    0.20164    1.000
    C24      C        0.54836    0.12254    0.88776    1.000
    C24      C        0.20164    0.62254    0.36224    1.000
    C24      C        0.04836    0.12746    0.86224    1.000
    C24      C        0.70164    0.62746    0.38776    1.000
    C24      C        0.79836    0.13776    0.87746    1.000
    C24      C        0.45164    0.61224    0.37746    1.000
    C24      C        0.29836    0.11224    0.87254    1.000
    C24      C        0.95164    0.63776    0.37254    1.000
    C24      C        0.63776    0.87254    0.45164    1.000
    C24      C        0.11224    0.37254    0.79836    1.000
    C24      C        0.61224    0.87746    0.95164    1.000
    C24      C        0.13776    0.37746    0.29836    1.000
    C24      C        0.37254    0.29836    0.61224    1.000
    C24      C        0.87254    0.95164    0.13776    1.000
    C24      C        0.37746    0.79836    0.63776    1.000
    C24      C        0.87746    0.45164    0.11224    1.000
    C25      C        0.63418    0.31350    0.87311    1.000
    C25      C        0.13418    0.43650    0.37689    1.000
    C25      C        0.61582    0.81350    0.87689    1.000
    C25      C        0.37311    0.11582    0.93650    1.000
    C25      C        0.87311    0.63418    0.31350    1.000
    C25      C        0.37689    0.13418    0.43650    1.000
    C25      C        0.87689    0.61582    0.81350    1.000
    C25      C        0.93650    0.37311    0.11582    1.000
    C25      C        0.31350    0.87311    0.63418    1.000
    C25      C        0.43650    0.37689    0.13418    1.000
    C25      C        0.81350    0.87689    0.61582    1.000
    C25      C        0.68650    0.36582    0.12689    1.000
    C25      C        0.06350    0.88418    0.62689    1.000
    C25      C        0.18650    0.38418    0.12311    1.000
    C25      C        0.56350    0.86582    0.62311    1.000
    C25      C        0.86582    0.62311    0.56350    1.000
    C25      C        0.38418    0.12311    0.18650    1.000
    C25      C        0.88418    0.62689    0.06350    1.000
    C25      C        0.36582    0.12689    0.68650    1.000
    C25      C        0.12311    0.18650    0.38418    1.000
    C25      C        0.62311    0.56350    0.86582    1.000
    C25      C        0.12689    0.68650    0.36582    1.000
    C25      C        0.62689    0.06350    0.88418    1.000
    C25      C        0.88418    0.06350    0.62689    1.000
    C25      C        0.36582    0.68650    0.12689    1.000
    C25      C        0.86582    0.56350    0.62311    1.000
    C25      C        0.38418    0.18650    0.12311    1.000
    C25      C        0.62689    0.88418    0.06350    1.000
    C25      C        0.12689    0.36582    0.68650    1.000
    C25      C        0.62311    0.86582    0.56350    1.000
    C25      C        0.12311    0.38418    0.18650    1.000
    C25      C        0.06350    0.62689    0.88418    1.000
    C25      C        0.68650    0.12689    0.36582    1.000
    C25      C        0.56350    0.62311    0.86582    1.000
    C25      C        0.18650    0.12311    0.38418    1.000
    C25      C        0.31350    0.63418    0.87311    1.000
    C25      C        0.93650    0.11582    0.37311    1.000
    C25      C        0.81350    0.61582    0.87689    1.000
    C25      C        0.43650    0.13418    0.37689    1.000
    C25      C        0.13418    0.37689    0.43650    1.000
    C25      C        0.61582    0.87689    0.81350    1.000
    C25      C        0.11582    0.37311    0.93650    1.000
    C25      C        0.63418    0.87311    0.31350    1.000
    C25      C        0.87689    0.81350    0.61582    1.000
    C25      C        0.37689    0.43650    0.13418    1.000
    C25      C        0.87311    0.31350    0.63418    1.000
    C25      C        0.37311    0.93650    0.11582    1.000
    C25      C        0.11582    0.43650    0.87311    1.000
    C25      C        0.63418    0.81350    0.37311    1.000
    C25      C        0.13418    0.93650    0.87689    1.000
    C25      C        0.61582    0.31350    0.37689    1.000
    C25      C        0.37311    0.61582    0.43650    1.000
    C25      C        0.87311    0.13418    0.81350    1.000
    C25      C        0.37689    0.63418    0.93650    1.000
    C25      C        0.87689    0.11582    0.31350    1.000
    C25      C        0.93650    0.87311    0.61582    1.000
    C25      C        0.31350    0.37311    0.13418    1.000
    C25      C        0.43650    0.87689    0.63418    1.000
    C25      C        0.81350    0.37689    0.11582    1.000
    C25      C        0.68650    0.86582    0.62689    1.000
    C25      C        0.06350    0.38418    0.12689    1.000
    C25      C        0.18650    0.88418    0.62311    1.000
    C25      C        0.56350    0.36582    0.12311    1.000
    C25      C        0.86582    0.12311    0.06350    1.000
    C25      C        0.38418    0.62311    0.68650    1.000
    C25      C        0.88418    0.12689    0.56350    1.000
    C25      C        0.36582    0.62689    0.18650    1.000
    C25      C        0.12311    0.68650    0.88418    1.000
    C25      C        0.62311    0.06350    0.36582    1.000
    C25      C        0.12689    0.18650    0.86582    1.000
    C25      C        0.62689    0.56350    0.38418    1.000
    C25      C        0.88418    0.56350    0.12689    1.000
    C25      C        0.36582    0.18650    0.62689    1.000
    C25      C        0.86582    0.06350    0.12311    1.000
    C25      C        0.38418    0.68650    0.62311    1.000
    C25      C        0.62689    0.38418    0.56350    1.000
    C25      C        0.12689    0.86582    0.18650    1.000
    C25      C        0.62311    0.36582    0.06350    1.000
    C25      C        0.12311    0.88418    0.68650    1.000
    C25      C        0.06350    0.12689    0.38418    1.000
    C25      C        0.68650    0.62689    0.86582    1.000
    C25      C        0.56350    0.12311    0.36582    1.000
    C25      C        0.18650    0.62311    0.88418    1.000
    C25      C        0.31350    0.13418    0.37311    1.000
    C25      C        0.93650    0.61582    0.87311    1.000
    C25      C        0.81350    0.11582    0.37689    1.000
    C25      C        0.43650    0.63418    0.87689    1.000
    C25      C        0.13418    0.87689    0.93650    1.000
    C25      C        0.61582    0.37689    0.31350    1.000
    C25      C        0.11582    0.87311    0.43650    1.000
    C25      C        0.63418    0.37311    0.81350    1.000
    C25      C        0.87689    0.31350    0.11582    1.000
    C25      C        0.37689    0.93650    0.63418    1.000
    C25      C        0.87311    0.81350    0.13418    1.000
    C25      C        0.37311    0.43650    0.61582    1.000
    C25      C        0.61582    0.93650    0.87311    1.000
    C25      C        0.13418    0.31350    0.37311    1.000
    C25      C        0.63418    0.43650    0.87689    1.000
    C25      C        0.11582    0.81350    0.37689    1.000
    C25      C        0.87311    0.11582    0.43650    1.000
    C25      C        0.37311    0.63418    0.81350    1.000
    C25      C        0.87689    0.13418    0.93650    1.000
    C25      C        0.37689    0.61582    0.31350    1.000
    C25      C        0.43650    0.37311    0.61582    1.000
    C25      C        0.81350    0.87311    0.13418    1.000
    C25      C        0.93650    0.37689    0.63418    1.000
    C25      C        0.31350    0.87689    0.11582    1.000
    C25      C        0.18650    0.36582    0.62689    1.000
    C25      C        0.56350    0.88418    0.12689    1.000
    C25      C        0.68650    0.38418    0.62311    1.000
    C25      C        0.06350    0.86582    0.12311    1.000
    C25      C        0.36582    0.62311    0.06350    1.000
    C25      C        0.88418    0.12311    0.68650    1.000
    C25      C        0.38418    0.62689    0.56350    1.000
    C25      C        0.86582    0.12689    0.18650    1.000
    C25      C        0.62311    0.18650    0.88418    1.000
    C25      C        0.12311    0.56350    0.36582    1.000
    C25      C        0.62689    0.68650    0.86582    1.000
    C25      C        0.12689    0.06350    0.38418    1.000
    C25      C        0.38418    0.06350    0.12689    1.000
    C25      C        0.86582    0.68650    0.62689    1.000
    C25      C        0.36582    0.56350    0.12311    1.000
    C25      C        0.88418    0.18650    0.62311    1.000
    C25      C        0.12689    0.88418    0.56350    1.000
    C25      C        0.62689    0.36582    0.18650    1.000
    C25      C        0.12311    0.86582    0.06350    1.000
    C25      C        0.62311    0.38418    0.68650    1.000
    C25      C        0.56350    0.62689    0.38418    1.000
    C25      C        0.18650    0.12689    0.86582    1.000
    C25      C        0.06350    0.62311    0.36582    1.000
    C25      C        0.68650    0.12311    0.88418    1.000
    C25      C        0.81350    0.63418    0.37311    1.000
    C25      C        0.43650    0.11582    0.87311    1.000
    C25      C        0.31350    0.61582    0.37689    1.000
    C25      C        0.93650    0.13418    0.87689    1.000
    C25      C        0.63418    0.37689    0.93650    1.000
    C25      C        0.11582    0.87689    0.31350    1.000
    C25      C        0.61582    0.37311    0.43650    1.000
    C25      C        0.13418    0.87311    0.81350    1.000
    C25      C        0.37689    0.81350    0.11582    1.000
    C25      C        0.87689    0.43650    0.63418    1.000
    C25      C        0.37311    0.31350    0.13418    1.000
    C25      C        0.87311    0.93650    0.61582    1.000
    C25      C        0.61582    0.43650    0.37311    1.000
    C25      C        0.13418    0.81350    0.87311    1.000
    C25      C        0.63418    0.93650    0.37689    1.000
    C25      C        0.11582    0.31350    0.87689    1.000
    C25      C        0.87311    0.61582    0.93650    1.000
    C25      C        0.37311    0.13418    0.31350    1.000
    C25      C        0.87689    0.63418    0.43650    1.000
    C25      C        0.37689    0.11582    0.81350    1.000
    C25      C        0.43650    0.87311    0.11582    1.000
    C25      C        0.81350    0.37311    0.63418    1.000
    C25      C        0.93650    0.87689    0.13418    1.000
    C25      C        0.31350    0.37689    0.61582    1.000
    C25      C        0.18650    0.86582    0.12689    1.000
    C25      C        0.56350    0.38418    0.62689    1.000
    C25      C        0.68650    0.88418    0.12311    1.000
    C25      C        0.06350    0.36582    0.62311    1.000
    C25      C        0.36582    0.12311    0.56350    1.000
    C25      C        0.88418    0.62311    0.18650    1.000
    C25      C        0.38418    0.12689    0.06350    1.000
    C25      C        0.86582    0.62689    0.68650    1.000
    C25      C        0.62311    0.68650    0.38418    1.000
    C25      C        0.12311    0.06350    0.86582    1.000
    C25      C        0.62689    0.18650    0.36582    1.000
    C25      C        0.12689    0.56350    0.88418    1.000
    C25      C        0.38418    0.56350    0.62689    1.000
    C25      C        0.86582    0.18650    0.12689    1.000
    C25      C        0.36582    0.06350    0.62311    1.000
    C25      C        0.88418    0.68650    0.12311    1.000
    C25      C        0.12689    0.38418    0.06350    1.000
    C25      C        0.62689    0.86582    0.68650    1.000
    C25      C        0.12311    0.36582    0.56350    1.000
    C25      C        0.62311    0.88418    0.18650    1.000
    C25      C        0.56350    0.12689    0.88418    1.000
    C25      C        0.18650    0.62689    0.36582    1.000
    C25      C        0.06350    0.12311    0.86582    1.000
    C25      C        0.68650    0.62311    0.38418    1.000
    C25      C        0.81350    0.13418    0.87311    1.000
    C25      C        0.43650    0.61582    0.37311    1.000
    C25      C        0.31350    0.11582    0.87689    1.000
    C25      C        0.93650    0.63418    0.37689    1.000
    C25      C        0.63418    0.87689    0.43650    1.000
    C25      C        0.11582    0.37689    0.81350    1.000
    C25      C        0.61582    0.87311    0.93650    1.000
    C25      C        0.13418    0.37311    0.31350    1.000
    C25      C        0.37689    0.31350    0.61582    1.000
    C25      C        0.87689    0.93650    0.13418    1.000
    C25      C        0.37311    0.81350    0.63418    1.000
    C25      C        0.87311    0.43650    0.11582    1.000
    C26      C        0.05530    0.32340    0.42660    1.000
    C26      C        0.55530    0.42660    0.82340    1.000
    C26      C        0.19470    0.82340    0.32340    1.000
    C26      C        0.92660    0.69470    0.92660    1.000
    C26      C        0.42660    0.05530    0.32340    1.000
    C26      C        0.82340    0.55530    0.42660    1.000
    C26      C        0.32340    0.19470    0.82340    1.000
    C26      C        0.92660    0.92660    0.69470    1.000
    C26      C        0.32340    0.42660    0.05530    1.000
    C26      C        0.42660    0.82340    0.55530    1.000
    C26      C        0.82340    0.32340    0.19470    1.000
    C26      C        0.67660    0.94470    0.57340    1.000
    C26      C        0.07340    0.30530    0.07340    1.000
    C26      C        0.17660    0.80530    0.67660    1.000
    C26      C        0.57340    0.44470    0.17660    1.000
    C26      C        0.44470    0.17660    0.57340    1.000
    C26      C        0.80530    0.67660    0.17660    1.000
    C26      C        0.30530    0.07340    0.07340    1.000
    C26      C        0.94470    0.57340    0.67660    1.000
    C26      C        0.67660    0.17660    0.80530    1.000
    C26      C        0.17660    0.57340    0.44470    1.000
    C26      C        0.57340    0.67660    0.94470    1.000
    C26      C        0.07340    0.07340    0.30530    1.000
    C26      C        0.94470    0.67660    0.57340    1.000
    C26      C        0.44470    0.57340    0.17660    1.000
    C26      C        0.80530    0.17660    0.67660    1.000
    C26      C        0.57340    0.94470    0.67660    1.000
    C26      C        0.17660    0.44470    0.57340    1.000
    C26      C        0.67660    0.80530    0.17660    1.000
    C26      C        0.67660    0.57340    0.94470    1.000
    C26      C        0.57340    0.17660    0.44470    1.000
    C26      C        0.17660    0.67660    0.80530    1.000
    C26      C        0.32340    0.05530    0.42660    1.000
    C26      C        0.82340    0.19470    0.32340    1.000
    C26      C        0.42660    0.55530    0.82340    1.000
    C26      C        0.55530    0.82340    0.42660    1.000
    C26      C        0.19470    0.32340    0.82340    1.000
    C26      C        0.05530    0.42660    0.32340    1.000
    C26      C        0.32340    0.82340    0.19470    1.000
    C26      C        0.82340    0.42660    0.55530    1.000
    C26      C        0.42660    0.32340    0.05530    1.000
    C26      C        0.69470    0.42660    0.42660    1.000
    C26      C        0.05530    0.82340    0.92660    1.000
    C26      C        0.55530    0.92660    0.32340    1.000
    C26      C        0.92660    0.19470    0.42660    1.000
    C26      C        0.82340    0.05530    0.92660    1.000
    C26      C        0.32340    0.69470    0.32340    1.000
    C26      C        0.92660    0.42660    0.19470    1.000
    C26      C        0.32340    0.92660    0.55530    1.000
    C26      C        0.82340    0.82340    0.69470    1.000
    C26      C        0.67660    0.44470    0.07340    1.000
    C26      C        0.07340    0.80530    0.57340    1.000
    C26      C        0.17660    0.30530    0.17660    1.000
    C26      C        0.44470    0.67660    0.07340    1.000
    C26      C        0.30530    0.57340    0.57340    1.000
    C26      C        0.94470    0.07340    0.17660    1.000
    C26      C        0.67660    0.67660    0.30530    1.000
    C26      C        0.17660    0.07340    0.94470    1.000
    C26      C        0.07340    0.57340    0.80530    1.000
    C26      C        0.94470    0.17660    0.07340    1.000
    C26      C        0.44470    0.07340    0.67660    1.000
    C26      C        0.17660    0.94470    0.07340    1.000
    C26      C        0.67660    0.30530    0.67660    1.000
    C26      C        0.67660    0.07340    0.44470    1.000
    C26      C        0.17660    0.17660    0.30530    1.000
    C26      C        0.32340    0.55530    0.92660    1.000
    C26      C        0.82340    0.69470    0.82340    1.000
    C26      C        0.55530    0.32340    0.92660    1.000
    C26      C        0.05530    0.92660    0.82340    1.000
    C26      C        0.32340    0.32340    0.69470    1.000
    C26      C        0.82340    0.92660    0.05530    1.000
    C26      C        0.19470    0.92660    0.42660    1.000
    C26      C        0.69470    0.82340    0.82340    1.000
    C26      C        0.42660    0.69470    0.42660    1.000
    C26      C        0.92660    0.05530    0.82340    1.000
    C26      C        0.42660    0.92660    0.19470    1.000
    C26      C        0.92660    0.82340    0.05530    1.000
    C26      C        0.57340    0.30530    0.57340    1.000
    C26      C        0.07340    0.44470    0.67660    1.000
    C26      C        0.30530    0.67660    0.67660    1.000
    C26      C        0.80530    0.07340    0.57340    1.000
    C26      C        0.07340    0.67660    0.44470    1.000
    C26      C        0.57340    0.07340    0.80530    1.000
    C26      C        0.30530    0.17660    0.17660    1.000
    C26      C        0.07340    0.94470    0.17660    1.000
    C26      C        0.07340    0.17660    0.94470    1.000
    C26      C        0.92660    0.55530    0.32340    1.000
    C26      C        0.69470    0.32340    0.32340    1.000
    C26      C        0.92660    0.32340    0.55530    1.000
    C26      C        0.19470    0.42660    0.92660    1.000
    C26      C        0.42660    0.19470    0.92660    1.000
    C26      C        0.42660    0.42660    0.69470    1.000
    C26      C        0.57340    0.80530    0.07340    1.000
    C26      C        0.80530    0.57340    0.07340    1.000
    C26      C        0.57340    0.57340    0.30530    1.000
    C27      C        0.06275    0.33343    0.41657    1.000
    C27      C        0.56275    0.41657    0.83343    1.000
    C27      C        0.18725    0.83343    0.33343    1.000
    C27      C        0.91657    0.68725    0.91657    1.000
    C27      C        0.41657    0.06275    0.33343    1.000
    C27      C        0.83343    0.56275    0.41657    1.000
    C27      C        0.33343    0.18725    0.83343    1.000
    C27      C        0.91657    0.91657    0.68725    1.000
    C27      C        0.33343    0.41657    0.06275    1.000
    C27      C        0.41657    0.83343    0.56275    1.000
    C27      C        0.83343    0.33343    0.18725    1.000
    C27      C        0.66657    0.93725    0.58343    1.000
    C27      C        0.08343    0.31275    0.08343    1.000
    C27      C        0.16657    0.81275    0.66657    1.000
    C27      C        0.58343    0.43725    0.16657    1.000
    C27      C        0.43725    0.16657    0.58343    1.000
    C27      C        0.81275    0.66657    0.16657    1.000
    C27      C        0.31275    0.08343    0.08343    1.000
    C27      C        0.93725    0.58343    0.66657    1.000
    C27      C        0.66657    0.16657    0.81275    1.000
    C27      C        0.16657    0.58343    0.43725    1.000
    C27      C        0.58343    0.66657    0.93725    1.000
    C27      C        0.08343    0.08343    0.31275    1.000
    C27      C        0.93725    0.66657    0.58343    1.000
    C27      C        0.43725    0.58343    0.16657    1.000
    C27      C        0.81275    0.16657    0.66657    1.000
    C27      C        0.58343    0.93725    0.66657    1.000
    C27      C        0.16657    0.43725    0.58343    1.000
    C27      C        0.66657    0.81275    0.16657    1.000
    C27      C        0.66657    0.58343    0.93725    1.000
    C27      C        0.58343    0.16657    0.43725    1.000
    C27      C        0.16657    0.66657    0.81275    1.000
    C27      C        0.33343    0.06275    0.41657    1.000
    C27      C        0.83343    0.18725    0.33343    1.000
    C27      C        0.41657    0.56275    0.83343    1.000
    C27      C        0.56275    0.83343    0.41657    1.000
    C27      C        0.18725    0.33343    0.83343    1.000
    C27      C        0.06275    0.41657    0.33343    1.000
    C27      C        0.33343    0.83343    0.18725    1.000
    C27      C        0.83343    0.41657    0.56275    1.000
    C27      C        0.41657    0.33343    0.06275    1.000
    C27      C        0.68725    0.41657    0.41657    1.000
    C27      C        0.06275    0.83343    0.91657    1.000
    C27      C        0.56275    0.91657    0.33343    1.000
    C27      C        0.91657    0.18725    0.41657    1.000
    C27      C        0.83343    0.06275    0.91657    1.000
    C27      C        0.33343    0.68725    0.33343    1.000
    C27      C        0.91657    0.41657    0.18725    1.000
    C27      C        0.33343    0.91657    0.56275    1.000
    C27      C        0.83343    0.83343    0.68725    1.000
    C27      C        0.66657    0.43725    0.08343    1.000
    C27      C        0.08343    0.81275    0.58343    1.000
    C27      C        0.16657    0.31275    0.16657    1.000
    C27      C        0.43725    0.66657    0.08343    1.000
    C27      C        0.31275    0.58343    0.58343    1.000
    C27      C        0.93725    0.08343    0.16657    1.000
    C27      C        0.66657    0.66657    0.31275    1.000
    C27      C        0.16657    0.08343    0.93725    1.000
    C27      C        0.08343    0.58343    0.81275    1.000
    C27      C        0.93725    0.16657    0.08343    1.000
    C27      C        0.43725    0.08343    0.66657    1.000
    C27      C        0.16657    0.93725    0.08343    1.000
    C27      C        0.66657    0.31275    0.66657    1.000
    C27      C        0.66657    0.08343    0.43725    1.000
    C27      C        0.16657    0.16657    0.31275    1.000
    C27      C        0.33343    0.56275    0.91657    1.000
    C27      C        0.83343    0.68725    0.83343    1.000
    C27      C        0.56275    0.33343    0.91657    1.000
    C27      C        0.06275    0.91657    0.83343    1.000
    C27      C        0.33343    0.33343    0.68725    1.000
    C27      C        0.83343    0.91657    0.06275    1.000
    C27      C        0.18725    0.91657    0.41657    1.000
    C27      C        0.68725    0.83343    0.83343    1.000
    C27      C        0.41657    0.68725    0.41657    1.000
    C27      C        0.91657    0.06275    0.83343    1.000
    C27      C        0.41657    0.91657    0.18725    1.000
    C27      C        0.91657    0.83343    0.06275    1.000
    C27      C        0.58343    0.31275    0.58343    1.000
    C27      C        0.08343    0.43725    0.66657    1.000
    C27      C        0.31275    0.66657    0.66657    1.000
    C27      C        0.81275    0.08343    0.58343    1.000
    C27      C        0.08343    0.66657    0.43725    1.000
    C27      C        0.58343    0.08343    0.81275    1.000
    C27      C        0.31275    0.16657    0.16657    1.000
    C27      C        0.08343    0.93725    0.16657    1.000
    C27      C        0.08343    0.16657    0.93725    1.000
    C27      C        0.91657    0.56275    0.33343    1.000
    C27      C        0.68725    0.33343    0.33343    1.000
    C27      C        0.91657    0.33343    0.56275    1.000
    C27      C        0.18725    0.41657    0.91657    1.000
    C27      C        0.41657    0.18725    0.91657    1.000
    C27      C        0.41657    0.41657    0.68725    1.000
    C27      C        0.58343    0.81275    0.08343    1.000
    C27      C        0.81275    0.58343    0.08343    1.000
    C27      C        0.58343    0.58343    0.31275    1.000
    C28      C        0.09639    0.35826    0.39174    1.000
    C28      C        0.59639    0.39174    0.85826    1.000
    C28      C        0.15361    0.85826    0.35826    1.000
    C28      C        0.89174    0.65361    0.89174    1.000
    C28      C        0.39174    0.09639    0.35826    1.000
    C28      C        0.85826    0.59639    0.39174    1.000
    C28      C        0.35826    0.15361    0.85826    1.000
    C28      C        0.89174    0.89174    0.65361    1.000
    C28      C        0.35826    0.39174    0.09639    1.000
    C28      C        0.39174    0.85826    0.59639    1.000
    C28      C        0.85826    0.35826    0.15361    1.000
    C28      C        0.64174    0.90361    0.60826    1.000
    C28      C        0.10826    0.34639    0.10826    1.000
    C28      C        0.14174    0.84639    0.64174    1.000
    C28      C        0.60826    0.40361    0.14174    1.000
    C28      C        0.40361    0.14174    0.60826    1.000
    C28      C        0.84639    0.64174    0.14174    1.000
    C28      C        0.34639    0.10826    0.10826    1.000
    C28      C        0.90361    0.60826    0.64174    1.000
    C28      C        0.64174    0.14174    0.84639    1.000
    C28      C        0.14174    0.60826    0.40361    1.000
    C28      C        0.60826    0.64174    0.90361    1.000
    C28      C        0.10826    0.10826    0.34639    1.000
    C28      C        0.90361    0.64174    0.60826    1.000
    C28      C        0.40361    0.60826    0.14174    1.000
    C28      C        0.84639    0.14174    0.64174    1.000
    C28      C        0.60826    0.90361    0.64174    1.000
    C28      C        0.14174    0.40361    0.60826    1.000
    C28      C        0.64174    0.84639    0.14174    1.000
    C28      C        0.64174    0.60826    0.90361    1.000
    C28      C        0.60826    0.14174    0.40361    1.000
    C28      C        0.14174    0.64174    0.84639    1.000
    C28      C        0.35826    0.09639    0.39174    1.000
    C28      C        0.85826    0.15361    0.35826    1.000
    C28      C        0.39174    0.59639    0.85826    1.000
    C28      C        0.59639    0.85826    0.39174    1.000
    C28      C        0.15361    0.35826    0.85826    1.000
    C28      C        0.09639    0.39174    0.35826    1.000
    C28      C        0.35826    0.85826    0.15361    1.000
    C28      C        0.85826    0.39174    0.59639    1.000
    C28      C        0.39174    0.35826    0.09639    1.000
    C28      C        0.65361    0.39174    0.39174    1.000
    C28      C        0.09639    0.85826    0.89174    1.000
    C28      C        0.59639    0.89174    0.35826    1.000
    C28      C        0.89174    0.15361    0.39174    1.000
    C28      C        0.85826    0.09639    0.89174    1.000
    C28      C        0.35826    0.65361    0.35826    1.000
    C28      C        0.89174    0.39174    0.15361    1.000
    C28      C        0.35826    0.89174    0.59639    1.000
    C28      C        0.85826    0.85826    0.65361    1.000
    C28      C        0.64174    0.40361    0.10826    1.000
    C28      C        0.10826    0.84639    0.60826    1.000
    C28      C        0.14174    0.34639    0.14174    1.000
    C28      C        0.40361    0.64174    0.10826    1.000
    C28      C        0.34639    0.60826    0.60826    1.000
    C28      C        0.90361    0.10826    0.14174    1.000
    C28      C        0.64174    0.64174    0.34639    1.000
    C28      C        0.14174    0.10826    0.90361    1.000
    C28      C        0.10826    0.60826    0.84639    1.000
    C28      C        0.90361    0.14174    0.10826    1.000
    C28      C        0.40361    0.10826    0.64174    1.000
    C28      C        0.14174    0.90361    0.10826    1.000
    C28      C        0.64174    0.34639    0.64174    1.000
    C28      C        0.64174    0.10826    0.40361    1.000
    C28      C        0.14174    0.14174    0.34639    1.000
    C28      C        0.35826    0.59639    0.89174    1.000
    C28      C        0.85826    0.65361    0.85826    1.000
    C28      C        0.59639    0.35826    0.89174    1.000
    C28      C        0.09639    0.89174    0.85826    1.000
    C28      C        0.35826    0.35826    0.65361    1.000
    C28      C        0.85826    0.89174    0.09639    1.000
    C28      C        0.15361    0.89174    0.39174    1.000
    C28      C        0.65361    0.85826    0.85826    1.000
    C28      C        0.39174    0.65361    0.39174    1.000
    C28      C        0.89174    0.09639    0.85826    1.000
    C28      C        0.39174    0.89174    0.15361    1.000
    C28      C        0.89174    0.85826    0.09639    1.000
    C28      C        0.60826    0.34639    0.60826    1.000
    C28      C        0.10826    0.40361    0.64174    1.000
    C28      C        0.34639    0.64174    0.64174    1.000
    C28      C        0.84639    0.10826    0.60826    1.000
    C28      C        0.10826    0.64174    0.40361    1.000
    C28      C        0.60826    0.10826    0.84639    1.000
    C28      C        0.34639    0.14174    0.14174    1.000
    C28      C        0.10826    0.90361    0.14174    1.000
    C28      C        0.10826    0.14174    0.90361    1.000
    C28      C        0.89174    0.59639    0.35826    1.000
    C28      C        0.65361    0.35826    0.35826    1.000
    C28      C        0.89174    0.35826    0.59639    1.000
    C28      C        0.15361    0.39174    0.89174    1.000
    C28      C        0.39174    0.15361    0.89174    1.000
    C28      C        0.39174    0.39174    0.65361    1.000
    C28      C        0.60826    0.84639    0.10826    1.000
    C28      C        0.84639    0.60826    0.10826    1.000
    C28      C        0.60826    0.60826    0.34639    1.000
    C29      C        0.08816    0.34804    0.40196    1.000
    C29      C        0.58816    0.40196    0.84804    1.000
    C29      C        0.16184    0.84804    0.34804    1.000
    C29      C        0.90196    0.66184    0.90196    1.000
    C29      C        0.40196    0.08816    0.34804    1.000
    C29      C        0.84804    0.58816    0.40196    1.000
    C29      C        0.34804    0.16184    0.84804    1.000
    C29      C        0.90196    0.90196    0.66184    1.000
    C29      C        0.34804    0.40196    0.08816    1.000
    C29      C        0.40196    0.84804    0.58816    1.000
    C29      C        0.84804    0.34804    0.16184    1.000
    C29      C        0.65196    0.91184    0.59804    1.000
    C29      C        0.09804    0.33816    0.09804    1.000
    C29      C        0.15196    0.83816    0.65196    1.000
    C29      C        0.59804    0.41184    0.15196    1.000
    C29      C        0.41184    0.15196    0.59804    1.000
    C29      C        0.83816    0.65196    0.15196    1.000
    C29      C        0.33816    0.09804    0.09804    1.000
    C29      C        0.91184    0.59804    0.65196    1.000
    C29      C        0.65196    0.15196    0.83816    1.000
    C29      C        0.15196    0.59804    0.41184    1.000
    C29      C        0.59804    0.65196    0.91184    1.000
    C29      C        0.09804    0.09804    0.33816    1.000
    C29      C        0.91184    0.65196    0.59804    1.000
    C29      C        0.41184    0.59804    0.15196    1.000
    C29      C        0.83816    0.15196    0.65196    1.000
    C29      C        0.59804    0.91184    0.65196    1.000
    C29      C        0.15196    0.41184    0.59804    1.000
    C29      C        0.65196    0.83816    0.15196    1.000
    C29      C        0.65196    0.59804    0.91184    1.000
    C29      C        0.59804    0.15196    0.41184    1.000
    C29      C        0.15196    0.65196    0.83816    1.000
    C29      C        0.34804    0.08816    0.40196    1.000
    C29      C        0.84804    0.16184    0.34804    1.000
    C29      C        0.40196    0.58816    0.84804    1.000
    C29      C        0.58816    0.84804    0.40196    1.000
    C29      C        0.16184    0.34804    0.84804    1.000
    C29      C        0.08816    0.40196    0.34804    1.000
    C29      C        0.34804    0.84804    0.16184    1.000
    C29      C        0.84804    0.40196    0.58816    1.000
    C29      C        0.40196    0.34804    0.08816    1.000
    C29      C        0.66184    0.40196    0.40196    1.000
    C29      C        0.08816    0.84804    0.90196    1.000
    C29      C        0.58816    0.90196    0.34804    1.000
    C29      C        0.90196    0.16184    0.40196    1.000
    C29      C        0.84804    0.08816    0.90196    1.000
    C29      C        0.34804    0.66184    0.34804    1.000
    C29      C        0.90196    0.40196    0.16184    1.000
    C29      C        0.34804    0.90196    0.58816    1.000
    C29      C        0.84804    0.84804    0.66184    1.000
    C29      C        0.65196    0.41184    0.09804    1.000
    C29      C        0.09804    0.83816    0.59804    1.000
    C29      C        0.15196    0.33816    0.15196    1.000
    C29      C        0.41184    0.65196    0.09804    1.000
    C29      C        0.33816    0.59804    0.59804    1.000
    C29      C        0.91184    0.09804    0.15196    1.000
    C29      C        0.65196    0.65196    0.33816    1.000
    C29      C        0.15196    0.09804    0.91184    1.000
    C29      C        0.09804    0.59804    0.83816    1.000
    C29      C        0.91184    0.15196    0.09804    1.000
    C29      C        0.41184    0.09804    0.65196    1.000
    C29      C        0.15196    0.91184    0.09804    1.000
    C29      C        0.65196    0.33816    0.65196    1.000
    C29      C        0.65196    0.09804    0.41184    1.000
    C29      C        0.15196    0.15196    0.33816    1.000
    C29      C        0.34804    0.58816    0.90196    1.000
    C29      C        0.84804    0.66184    0.84804    1.000
    C29      C        0.58816    0.34804    0.90196    1.000
    C29      C        0.08816    0.90196    0.84804    1.000
    C29      C        0.34804    0.34804    0.66184    1.000
    C29      C        0.84804    0.90196    0.08816    1.000
    C29      C        0.16184    0.90196    0.40196    1.000
    C29      C        0.66184    0.84804    0.84804    1.000
    C29      C        0.40196    0.66184    0.40196    1.000
    C29      C        0.90196    0.08816    0.84804    1.000
    C29      C        0.40196    0.90196    0.16184    1.000
    C29      C        0.90196    0.84804    0.08816    1.000
    C29      C        0.59804    0.33816    0.59804    1.000
    C29      C        0.09804    0.41184    0.65196    1.000
    C29      C        0.33816    0.65196    0.65196    1.000
    C29      C        0.83816    0.09804    0.59804    1.000
    C29      C        0.09804    0.65196    0.41184    1.000
    C29      C        0.59804    0.09804    0.83816    1.000
    C29      C        0.33816    0.15196    0.15196    1.000
    C29      C        0.09804    0.91184    0.15196    1.000
    C29      C        0.09804    0.15196    0.91184    1.000
    C29      C        0.90196    0.58816    0.34804    1.000
    C29      C        0.66184    0.34804    0.34804    1.000
    C29      C        0.90196    0.34804    0.58816    1.000
    C29      C        0.16184    0.40196    0.90196    1.000
    C29      C        0.40196    0.16184    0.90196    1.000
    C29      C        0.40196    0.40196    0.66184    1.000
    C29      C        0.59804    0.83816    0.09804    1.000
    C29      C        0.83816    0.59804    0.09804    1.000
    C29      C        0.59804    0.59804    0.33816    1.000
    C30      C        0.07049    0.32678    0.40471    1.000
    C30      C        0.57049    0.42322    0.84529    1.000
    C30      C        0.17951    0.82678    0.34529    1.000
    C30      C        0.90471    0.67951    0.92322    1.000
    C30      C        0.40471    0.07049    0.32678    1.000
    C30      C        0.84529    0.57049    0.42322    1.000
    C30      C        0.34529    0.17951    0.82678    1.000
    C30      C        0.92322    0.90471    0.67951    1.000
    C30      C        0.32678    0.40471    0.07049    1.000
    C30      C        0.42322    0.84529    0.57049    1.000
    C30      C        0.82678    0.34529    0.17951    1.000
    C30      C        0.67322    0.92951    0.59529    1.000
    C30      C        0.07678    0.32049    0.09529    1.000
    C30      C        0.17322    0.82049    0.65471    1.000
    C30      C        0.57678    0.42951    0.15471    1.000
    C30      C        0.42951    0.15471    0.57678    1.000
    C30      C        0.82049    0.65471    0.17322    1.000
    C30      C        0.32049    0.09529    0.07678    1.000
    C30      C        0.92951    0.59529    0.67322    1.000
    C30      C        0.65471    0.17322    0.82049    1.000
    C30      C        0.15471    0.57678    0.42951    1.000
    C30      C        0.59529    0.67322    0.92951    1.000
    C30      C        0.09529    0.07678    0.32049    1.000
    C30      C        0.32049    0.07678    0.09529    1.000
    C30      C        0.92951    0.67322    0.59529    1.000
    C30      C        0.42951    0.57678    0.15471    1.000
    C30      C        0.82049    0.17322    0.65471    1.000
    C30      C        0.09529    0.32049    0.07678    1.000
    C30      C        0.59529    0.92951    0.67322    1.000
    C30      C        0.15471    0.42951    0.57678    1.000
    C30      C        0.65471    0.82049    0.17322    1.000
    C30      C        0.07678    0.09529    0.32049    1.000
    C30      C        0.67322    0.59529    0.92951    1.000
    C30      C        0.57678    0.15471    0.42951    1.000
    C30      C        0.17322    0.65471    0.82049    1.000
    C30      C        0.32678    0.07049    0.40471    1.000
    C30      C        0.92322    0.67951    0.90471    1.000
    C30      C        0.82678    0.17951    0.34529    1.000
    C30      C        0.42322    0.57049    0.84529    1.000
    C30      C        0.57049    0.84529    0.42322    1.000
    C30      C        0.17951    0.34529    0.82678    1.000
    C30      C        0.67951    0.90471    0.92322    1.000
    C30      C        0.07049    0.40471    0.32678    1.000
    C30      C        0.34529    0.82678    0.17951    1.000
    C30      C        0.84529    0.42322    0.57049    1.000
    C30      C        0.40471    0.32678    0.07049    1.000
    C30      C        0.90471    0.92322    0.67951    1.000
    C30      C        0.67951    0.42322    0.40471    1.000
    C30      C        0.07049    0.82678    0.90471    1.000
    C30      C        0.57049    0.92322    0.34529    1.000
    C30      C        0.17951    0.32678    0.84529    1.000
    C30      C        0.90471    0.17951    0.42322    1.000
    C30      C        0.40471    0.57049    0.82678    1.000
    C30      C        0.84529    0.07049    0.92322    1.000
    C30      C        0.34529    0.67951    0.32678    1.000
    C30      C        0.92322    0.40471    0.17951    1.000
    C30      C        0.32678    0.90471    0.57049    1.000
    C30      C        0.42322    0.34529    0.07049    1.000
    C30      C        0.82678    0.84529    0.67951    1.000
    C30      C        0.67322    0.42951    0.09529    1.000
    C30      C        0.07678    0.82049    0.59529    1.000
    C30      C        0.17322    0.32049    0.15471    1.000
    C30      C        0.57678    0.92951    0.65471    1.000
    C30      C        0.42951    0.65471    0.07678    1.000
    C30      C        0.82049    0.15471    0.67322    1.000
    C30      C        0.32049    0.59529    0.57678    1.000
    C30      C        0.92951    0.09529    0.17322    1.000
    C30      C        0.65471    0.67322    0.32049    1.000
    C30      C        0.15471    0.07678    0.92951    1.000
    C30      C        0.59529    0.17322    0.42951    1.000
    C30      C        0.09529    0.57678    0.82049    1.000
    C30      C        0.32049    0.57678    0.59529    1.000
    C30      C        0.92951    0.17322    0.09529    1.000
    C30      C        0.42951    0.07678    0.65471    1.000
    C30      C        0.82049    0.67322    0.15471    1.000
    C30      C        0.09529    0.82049    0.57678    1.000
    C30      C        0.59529    0.42951    0.17322    1.000
    C30      C        0.15471    0.92951    0.07678    1.000
    C30      C        0.65471    0.32049    0.67322    1.000
    C30      C        0.07678    0.59529    0.82049    1.000
    C30      C        0.67322    0.09529    0.42951    1.000
    C30      C        0.57678    0.65471    0.92951    1.000
    C30      C        0.17322    0.15471    0.32049    1.000
    C30      C        0.32678    0.57049    0.90471    1.000
    C30      C        0.92322    0.17951    0.40471    1.000
    C30      C        0.82678    0.67951    0.84529    1.000
    C30      C        0.42322    0.07049    0.34529    1.000
    C30      C        0.57049    0.34529    0.92322    1.000
    C30      C        0.17951    0.84529    0.32678    1.000
    C30      C        0.67951    0.40471    0.42322    1.000
    C30      C        0.07049    0.90471    0.82678    1.000
    C30      C        0.34529    0.32678    0.67951    1.000
    C30      C        0.84529    0.92322    0.07049    1.000
    C30      C        0.40471    0.82678    0.57049    1.000
    C30      C        0.90471    0.42322    0.17951    1.000
    C30      C        0.17951    0.92322    0.40471    1.000
    C30      C        0.57049    0.32678    0.90471    1.000
    C30      C        0.07049    0.42322    0.34529    1.000
    C30      C        0.67951    0.82678    0.84529    1.000
    C30      C        0.40471    0.67951    0.42322    1.000
    C30      C        0.90471    0.07049    0.82678    1.000
    C30      C        0.34529    0.57049    0.92322    1.000
    C30      C        0.84529    0.17951    0.32678    1.000
    C30      C        0.42322    0.90471    0.17951    1.000
    C30      C        0.82678    0.40471    0.57049    1.000
    C30      C        0.92322    0.84529    0.07049    1.000
    C30      C        0.32678    0.34529    0.67951    1.000
    C30      C        0.17322    0.92951    0.09529    1.000
    C30      C        0.57678    0.32049    0.59529    1.000
    C30      C        0.67322    0.82049    0.15471    1.000
    C30      C        0.07678    0.42951    0.65471    1.000
    C30      C        0.92951    0.15471    0.07678    1.000
    C30      C        0.32049    0.65471    0.67322    1.000
    C30      C        0.82049    0.09529    0.57678    1.000
    C30      C        0.42951    0.59529    0.17322    1.000
    C30      C        0.15471    0.17322    0.32049    1.000
    C30      C        0.65471    0.57678    0.92951    1.000
    C30      C        0.09529    0.67322    0.42951    1.000
    C30      C        0.59529    0.07678    0.82049    1.000
    C30      C        0.82049    0.07678    0.59529    1.000
    C30      C        0.42951    0.67322    0.09529    1.000
    C30      C        0.92951    0.57678    0.65471    1.000
    C30      C        0.32049    0.17322    0.15471    1.000
    C30      C        0.59529    0.32049    0.57678    1.000
    C30      C        0.09529    0.92951    0.17322    1.000
    C30      C        0.65471    0.42951    0.07678    1.000
    C30      C        0.15471    0.82049    0.67322    1.000
    C30      C        0.57678    0.09529    0.82049    1.000
    C30      C        0.17322    0.59529    0.42951    1.000
    C30      C        0.07678    0.15471    0.92951    1.000
    C30      C        0.67322    0.65471    0.32049    1.000
    C30      C        0.82678    0.07049    0.90471    1.000
    C30      C        0.42322    0.67951    0.40471    1.000
    C30      C        0.32678    0.17951    0.84529    1.000
    C30      C        0.92322    0.57049    0.34529    1.000
    C30      C        0.07049    0.84529    0.92322    1.000
    C30      C        0.67951    0.34529    0.32678    1.000
    C30      C        0.17951    0.90471    0.42322    1.000
    C30      C        0.57049    0.40471    0.82678    1.000
    C30      C        0.84529    0.82678    0.67951    1.000
    C30      C        0.34529    0.42322    0.07049    1.000
    C30      C        0.90471    0.32678    0.57049    1.000
    C30      C        0.40471    0.92322    0.17951    1.000
    C30      C        0.17951    0.42322    0.90471    1.000
    C30      C        0.57049    0.82678    0.40471    1.000
    C30      C        0.07049    0.92322    0.84529    1.000
    C30      C        0.67951    0.32678    0.34529    1.000
    C30      C        0.40471    0.17951    0.92322    1.000
    C30      C        0.90471    0.57049    0.32678    1.000
    C30      C        0.34529    0.07049    0.42322    1.000
    C30      C        0.84529    0.67951    0.82678    1.000
    C30      C        0.42322    0.40471    0.67951    1.000
    C30      C        0.82678    0.90471    0.07049    1.000
    C30      C        0.92322    0.34529    0.57049    1.000
    C30      C        0.32678    0.84529    0.17951    1.000
    C30      C        0.17322    0.42951    0.59529    1.000
    C30      C        0.57678    0.82049    0.09529    1.000
    C30      C        0.67322    0.32049    0.65471    1.000
    C30      C        0.07678    0.92951    0.15471    1.000
    C30      C        0.92951    0.65471    0.57678    1.000
    C30      C        0.32049    0.15471    0.17322    1.000
    C30      C        0.82049    0.59529    0.07678    1.000
    C30      C        0.42951    0.09529    0.67322    1.000
    C30      C        0.15471    0.67322    0.82049    1.000
    C30      C        0.65471    0.07678    0.42951    1.000
    C30      C        0.09529    0.17322    0.92951    1.000
    C30      C        0.59529    0.57678    0.32049    1.000
    C30      C        0.82049    0.57678    0.09529    1.000
    C30      C        0.42951    0.17322    0.59529    1.000
    C30      C        0.92951    0.07678    0.15471    1.000
    C30      C        0.32049    0.67322    0.65471    1.000
    C30      C        0.59529    0.82049    0.07678    1.000
    C30      C        0.09529    0.42951    0.67322    1.000
    C30      C        0.65471    0.92951    0.57678    1.000
    C30      C        0.15471    0.32049    0.17322    1.000
    C30      C        0.57678    0.59529    0.32049    1.000
    C30      C        0.17322    0.09529    0.92951    1.000
    C30      C        0.07678    0.65471    0.42951    1.000
    C30      C        0.67322    0.15471    0.82049    1.000
    C30      C        0.82678    0.57049    0.40471    1.000
    C30      C        0.42322    0.17951    0.90471    1.000
    C30      C        0.32678    0.67951    0.34529    1.000
    C30      C        0.92322    0.07049    0.84529    1.000
    C30      C        0.07049    0.34529    0.42322    1.000
    C30      C        0.67951    0.84529    0.82678    1.000
    C30      C        0.17951    0.40471    0.92322    1.000
    C30      C        0.57049    0.90471    0.32678    1.000
    C30      C        0.84529    0.32678    0.17951    1.000
    C30      C        0.34529    0.92322    0.57049    1.000
    C30      C        0.90471    0.82678    0.07049    1.000
    C30      C        0.40471    0.42322    0.67951    1.000
    C31      C        0.08199    0.33485    0.39645    1.000
    C31      C        0.58199    0.41515    0.85355    1.000
    C31      C        0.16801    0.83485    0.35355    1.000
    C31      C        0.89645    0.66801    0.91515    1.000
    C31      C        0.39645    0.08199    0.33485    1.000
    C31      C        0.85355    0.58199    0.41515    1.000
    C31      C        0.35355    0.16801    0.83485    1.000
    C31      C        0.91515    0.89645    0.66801    1.000
    C31      C        0.33485    0.39645    0.08199    1.000
    C31      C        0.41515    0.85355    0.58199    1.000
    C31      C        0.83485    0.35355    0.16801    1.000
    C31      C        0.66515    0.91801    0.60355    1.000
    C31      C        0.08485    0.33199    0.10355    1.000
    C31      C        0.16515    0.83199    0.64645    1.000
    C31      C        0.58485    0.41801    0.14645    1.000
    C31      C        0.41801    0.14645    0.58485    1.000
    C31      C        0.83199    0.64645    0.16515    1.000
    C31      C        0.33199    0.10355    0.08485    1.000
    C31      C        0.91801    0.60355    0.66515    1.000
    C31      C        0.64645    0.16515    0.83199    1.000
    C31      C        0.14645    0.58485    0.41801    1.000
    C31      C        0.60355    0.66515    0.91801    1.000
    C31      C        0.10355    0.08485    0.33199    1.000
    C31      C        0.33199    0.08485    0.10355    1.000
    C31      C        0.91801    0.66515    0.60355    1.000
    C31      C        0.41801    0.58485    0.14645    1.000
    C31      C        0.83199    0.16515    0.64645    1.000
    C31      C        0.10355    0.33199    0.08485    1.000
    C31      C        0.60355    0.91801    0.66515    1.000
    C31      C        0.14645    0.41801    0.58485    1.000
    C31      C        0.64645    0.83199    0.16515    1.000
    C31      C        0.08485    0.10355    0.33199    1.000
    C31      C        0.66515    0.60355    0.91801    1.000
    C31      C        0.58485    0.14645    0.41801    1.000
    C31      C        0.16515    0.64645    0.83199    1.000
    C31      C        0.33485    0.08199    0.39645    1.000
    C31      C        0.91515    0.66801    0.89645    1.000
    C31      C        0.83485    0.16801    0.35355    1.000
    C31      C        0.41515    0.58199    0.85355    1.000
    C31      C        0.58199    0.85355    0.41515    1.000
    C31      C        0.16801    0.35355    0.83485    1.000
    C31      C        0.66801    0.89645    0.91515    1.000
    C31      C        0.08199    0.39645    0.33485    1.000
    C31      C        0.35355    0.83485    0.16801    1.000
    C31      C        0.85355    0.41515    0.58199    1.000
    C31      C        0.39645    0.33485    0.08199    1.000
    C31      C        0.89645    0.91515    0.66801    1.000
    C31      C        0.66801    0.41515    0.39645    1.000
    C31      C        0.08199    0.83485    0.89645    1.000
    C31      C        0.58199    0.91515    0.35355    1.000
    C31      C        0.16801    0.33485    0.85355    1.000
    C31      C        0.89645    0.16801    0.41515    1.000
    C31      C        0.39645    0.58199    0.83485    1.000
    C31      C        0.85355    0.08199    0.91515    1.000
    C31      C        0.35355    0.66801    0.33485    1.000
    C31      C        0.91515    0.39645    0.16801    1.000
    C31      C        0.33485    0.89645    0.58199    1.000
    C31      C        0.41515    0.35355    0.08199    1.000
    C31      C        0.83485    0.85355    0.66801    1.000
    C31      C        0.66515    0.41801    0.10355    1.000
    C31      C        0.08485    0.83199    0.60355    1.000
    C31      C        0.16515    0.33199    0.14645    1.000
    C31      C        0.58485    0.91801    0.64645    1.000
    C31      C        0.41801    0.64645    0.08485    1.000
    C31      C        0.83199    0.14645    0.66515    1.000
    C31      C        0.33199    0.60355    0.58485    1.000
    C31      C        0.91801    0.10355    0.16515    1.000
    C31      C        0.64645    0.66515    0.33199    1.000
    C31      C        0.14645    0.08485    0.91801    1.000
    C31      C        0.60355    0.16515    0.41801    1.000
    C31      C        0.10355    0.58485    0.83199    1.000
    C31      C        0.33199    0.58485    0.60355    1.000
    C31      C        0.91801    0.16515    0.10355    1.000
    C31      C        0.41801    0.08485    0.64645    1.000
    C31      C        0.83199    0.66515    0.14645    1.000
    C31      C        0.10355    0.83199    0.58485    1.000
    C31      C        0.60355    0.41801    0.16515    1.000
    C31      C        0.14645    0.91801    0.08485    1.000
    C31      C        0.64645    0.33199    0.66515    1.000
    C31      C        0.08485    0.60355    0.83199    1.000
    C31      C        0.66515    0.10355    0.41801    1.000
    C31      C        0.58485    0.64645    0.91801    1.000
    C31      C        0.16515    0.14645    0.33199    1.000
    C31      C        0.33485    0.58199    0.89645    1.000
    C31      C        0.91515    0.16801    0.39645    1.000
    C31      C        0.83485    0.66801    0.85355    1.000
    C31      C        0.41515    0.08199    0.35355    1.000
    C31      C        0.58199    0.35355    0.91515    1.000
    C31      C        0.16801    0.85355    0.33485    1.000
    C31      C        0.66801    0.39645    0.41515    1.000
    C31      C        0.08199    0.89645    0.83485    1.000
    C31      C        0.35355    0.33485    0.66801    1.000
    C31      C        0.85355    0.91515    0.08199    1.000
    C31      C        0.39645    0.83485    0.58199    1.000
    C31      C        0.89645    0.41515    0.16801    1.000
    C31      C        0.16801    0.91515    0.39645    1.000
    C31      C        0.58199    0.33485    0.89645    1.000
    C31      C        0.08199    0.41515    0.35355    1.000
    C31      C        0.66801    0.83485    0.85355    1.000
    C31      C        0.39645    0.66801    0.41515    1.000
    C31      C        0.89645    0.08199    0.83485    1.000
    C31      C        0.35355    0.58199    0.91515    1.000
    C31      C        0.85355    0.16801    0.33485    1.000
    C31      C        0.41515    0.89645    0.16801    1.000
    C31      C        0.83485    0.39645    0.58199    1.000
    C31      C        0.91515    0.85355    0.08199    1.000
    C31      C        0.33485    0.35355    0.66801    1.000
    C31      C        0.16515    0.91801    0.10355    1.000
    C31      C        0.58485    0.33199    0.60355    1.000
    C31      C        0.66515    0.83199    0.14645    1.000
    C31      C        0.08485    0.41801    0.64645    1.000
    C31      C        0.91801    0.14645    0.08485    1.000
    C31      C        0.33199    0.64645    0.66515    1.000
    C31      C        0.83199    0.10355    0.58485    1.000
    C31      C        0.41801    0.60355    0.16515    1.000
    C31      C        0.14645    0.16515    0.33199    1.000
    C31      C        0.64645    0.58485    0.91801    1.000
    C31      C        0.10355    0.66515    0.41801    1.000
    C31      C        0.60355    0.08485    0.83199    1.000
    C31      C        0.83199    0.08485    0.60355    1.000
    C31      C        0.41801    0.66515    0.10355    1.000
    C31      C        0.91801    0.58485    0.64645    1.000
    C31      C        0.33199    0.16515    0.14645    1.000
    C31      C        0.60355    0.33199    0.58485    1.000
    C31      C        0.10355    0.91801    0.16515    1.000
    C31      C        0.64645    0.41801    0.08485    1.000
    C31      C        0.14645    0.83199    0.66515    1.000
    C31      C        0.58485    0.10355    0.83199    1.000
    C31      C        0.16515    0.60355    0.41801    1.000
    C31      C        0.08485    0.14645    0.91801    1.000
    C31      C        0.66515    0.64645    0.33199    1.000
    C31      C        0.83485    0.08199    0.89645    1.000
    C31      C        0.41515    0.66801    0.39645    1.000
    C31      C        0.33485    0.16801    0.85355    1.000
    C31      C        0.91515    0.58199    0.35355    1.000
    C31      C        0.08199    0.85355    0.91515    1.000
    C31      C        0.66801    0.35355    0.33485    1.000
    C31      C        0.16801    0.89645    0.41515    1.000
    C31      C        0.58199    0.39645    0.83485    1.000
    C31      C        0.85355    0.83485    0.66801    1.000
    C31      C        0.35355    0.41515    0.08199    1.000
    C31      C        0.89645    0.33485    0.58199    1.000
    C31      C        0.39645    0.91515    0.16801    1.000
    C31      C        0.16801    0.41515    0.89645    1.000
    C31      C        0.58199    0.83485    0.39645    1.000
    C31      C        0.08199    0.91515    0.85355    1.000
    C31      C        0.66801    0.33485    0.35355    1.000
    C31      C        0.39645    0.16801    0.91515    1.000
    C31      C        0.89645    0.58199    0.33485    1.000
    C31      C        0.35355    0.08199    0.41515    1.000
    C31      C        0.85355    0.66801    0.83485    1.000
    C31      C        0.41515    0.39645    0.66801    1.000
    C31      C        0.83485    0.89645    0.08199    1.000
    C31      C        0.91515    0.35355    0.58199    1.000
    C31      C        0.33485    0.85355    0.16801    1.000
    C31      C        0.16515    0.41801    0.60355    1.000
    C31      C        0.58485    0.83199    0.10355    1.000
    C31      C        0.66515    0.33199    0.64645    1.000
    C31      C        0.08485    0.91801    0.14645    1.000
    C31      C        0.91801    0.64645    0.58485    1.000
    C31      C        0.33199    0.14645    0.16515    1.000
    C31      C        0.83199    0.60355    0.08485    1.000
    C31      C        0.41801    0.10355    0.66515    1.000
    C31      C        0.14645    0.66515    0.83199    1.000
    C31      C        0.64645    0.08485    0.41801    1.000
    C31      C        0.10355    0.16515    0.91801    1.000
    C31      C        0.60355    0.58485    0.33199    1.000
    C31      C        0.83199    0.58485    0.10355    1.000
    C31      C        0.41801    0.16515    0.60355    1.000
    C31      C        0.91801    0.08485    0.14645    1.000
    C31      C        0.33199    0.66515    0.64645    1.000
    C31      C        0.60355    0.83199    0.08485    1.000
    C31      C        0.10355    0.41801    0.66515    1.000
    C31      C        0.64645    0.91801    0.58485    1.000
    C31      C        0.14645    0.33199    0.16515    1.000
    C31      C        0.58485    0.60355    0.33199    1.000
    C31      C        0.16515    0.10355    0.91801    1.000
    C31      C        0.08485    0.64645    0.41801    1.000
    C31      C        0.66515    0.14645    0.83199    1.000
    C31      C        0.83485    0.58199    0.39645    1.000
    C31      C        0.41515    0.16801    0.89645    1.000
    C31      C        0.33485    0.66801    0.35355    1.000
    C31      C        0.91515    0.08199    0.85355    1.000
    C31      C        0.08199    0.35355    0.41515    1.000
    C31      C        0.66801    0.85355    0.83485    1.000
    C31      C        0.16801    0.39645    0.91515    1.000
    C31      C        0.58199    0.89645    0.33485    1.000
    C31      C        0.85355    0.33485    0.16801    1.000
    C31      C        0.35355    0.91515    0.58199    1.000
    C31      C        0.89645    0.83485    0.08199    1.000
    C31      C        0.39645    0.41515    0.66801    1.000
    C32      C        0.59294    0.26355    0.94571    1.000
    C32      C        0.09294    0.48645    0.30429    1.000
    C32      C        0.65706    0.76355    0.80429    1.000
    C32      C        0.44571    0.15706    0.98645    1.000
    C32      C        0.94571    0.59294    0.26355    1.000
    C32      C        0.30429    0.09294    0.48645    1.000
    C32      C        0.80429    0.65706    0.76355    1.000
    C32      C        0.98645    0.44571    0.15706    1.000
    C32      C        0.26355    0.94571    0.59294    1.000
    C32      C        0.48645    0.30429    0.09294    1.000
    C32      C        0.76355    0.80429    0.65706    1.000
    C32      C        0.73645    0.40706    0.05429    1.000
    C32      C        0.01355    0.84294    0.55429    1.000
    C32      C        0.23645    0.34294    0.19571    1.000
    C32      C        0.51355    0.90706    0.69571    1.000
    C32      C        0.90706    0.69571    0.51355    1.000
    C32      C        0.34294    0.19571    0.23645    1.000
    C32      C        0.84294    0.55429    0.01355    1.000
    C32      C        0.40706    0.05429    0.73645    1.000
    C32      C        0.19571    0.23645    0.34294    1.000
    C32      C        0.69571    0.51355    0.90706    1.000
    C32      C        0.05429    0.73645    0.40706    1.000
    C32      C        0.55429    0.01355    0.84294    1.000
    C32      C        0.84294    0.01355    0.55429    1.000
    C32      C        0.40706    0.73645    0.05429    1.000
    C32      C        0.90706    0.51355    0.69571    1.000
    C32      C        0.34294    0.23645    0.19571    1.000
    C32      C        0.55429    0.84294    0.01355    1.000
    C32      C        0.05429    0.40706    0.73645    1.000
    C32      C        0.69571    0.90706    0.51355    1.000
    C32      C        0.19571    0.34294    0.23645    1.000
    C32      C        0.01355    0.55429    0.84294    1.000
    C32      C        0.73645    0.05429    0.40706    1.000
    C32      C        0.51355    0.69571    0.90706    1.000
    C32      C        0.23645    0.19571    0.34294    1.000
    C32      C        0.26355    0.59294    0.94571    1.000
    C32      C        0.98645    0.15706    0.44571    1.000
    C32      C        0.76355    0.65706    0.80429    1.000
    C32      C        0.48645    0.09294    0.30429    1.000
    C32      C        0.09294    0.30429    0.48645    1.000
    C32      C        0.65706    0.80429    0.76355    1.000
    C32      C        0.15706    0.44571    0.98645    1.000
    C32      C        0.59294    0.94571    0.26355    1.000
    C32      C        0.80429    0.76355    0.65706    1.000
    C32      C        0.30429    0.48645    0.09294    1.000
    C32      C        0.94571    0.26355    0.59294    1.000
    C32      C        0.44571    0.98645    0.15706    1.000
    C32      C        0.15706    0.48645    0.94571    1.000
    C32      C        0.59294    0.76355    0.44571    1.000
    C32      C        0.09294    0.98645    0.80429    1.000
    C32      C        0.65706    0.26355    0.30429    1.000
    C32      C        0.44571    0.65706    0.48645    1.000
    C32      C        0.94571    0.09294    0.76355    1.000
    C32      C        0.30429    0.59294    0.98645    1.000
    C32      C        0.80429    0.15706    0.26355    1.000
    C32      C        0.98645    0.94571    0.65706    1.000
    C32      C        0.26355    0.44571    0.09294    1.000
    C32      C        0.48645    0.80429    0.59294    1.000
    C32      C        0.76355    0.30429    0.15706    1.000
    C32      C        0.73645    0.90706    0.55429    1.000
    C32      C        0.01355    0.34294    0.05429    1.000
    C32      C        0.23645    0.84294    0.69571    1.000
    C32      C        0.51355    0.40706    0.19571    1.000
    C32      C        0.90706    0.19571    0.01355    1.000
    C32      C        0.34294    0.69571    0.73645    1.000
    C32      C        0.84294    0.05429    0.51355    1.000
    C32      C        0.40706    0.55429    0.23645    1.000
    C32      C        0.19571    0.73645    0.84294    1.000
    C32      C        0.69571    0.01355    0.40706    1.000
    C32      C        0.05429    0.23645    0.90706    1.000
    C32      C        0.55429    0.51355    0.34294    1.000
    C32      C        0.84294    0.51355    0.05429    1.000
    C32      C        0.40706    0.23645    0.55429    1.000
    C32      C        0.90706    0.01355    0.19571    1.000
    C32      C        0.34294    0.73645    0.69571    1.000
    C32      C        0.55429    0.34294    0.51355    1.000
    C32      C        0.05429    0.90706    0.23645    1.000
    C32      C        0.69571    0.40706    0.01355    1.000
    C32      C        0.19571    0.84294    0.73645    1.000
    C32      C        0.01355    0.05429    0.34294    1.000
    C32      C        0.73645    0.55429    0.90706    1.000
    C32      C        0.51355    0.19571    0.40706    1.000
    C32      C        0.23645    0.69571    0.84294    1.000
    C32      C        0.26355    0.09294    0.44571    1.000
    C32      C        0.98645    0.65706    0.94571    1.000
    C32      C        0.76355    0.15706    0.30429    1.000
    C32      C        0.48645    0.59294    0.80429    1.000
    C32      C        0.09294    0.80429    0.98645    1.000
    C32      C        0.65706    0.30429    0.26355    1.000
    C32      C        0.15706    0.94571    0.48645    1.000
    C32      C        0.59294    0.44571    0.76355    1.000
    C32      C        0.80429    0.26355    0.15706    1.000
    C32      C        0.30429    0.98645    0.59294    1.000
    C32      C        0.94571    0.76355    0.09294    1.000
    C32      C        0.44571    0.48645    0.65706    1.000
    C32      C        0.65706    0.98645    0.94571    1.000
    C32      C        0.09294    0.26355    0.44571    1.000
    C32      C        0.59294    0.48645    0.80429    1.000
    C32      C        0.15706    0.76355    0.30429    1.000
    C32      C        0.94571    0.15706    0.48645    1.000
    C32      C        0.44571    0.59294    0.76355    1.000
    C32      C        0.80429    0.09294    0.98645    1.000
    C32      C        0.30429    0.65706    0.26355    1.000
    C32      C        0.48645    0.44571    0.65706    1.000
    C32      C        0.76355    0.94571    0.09294    1.000
    C32      C        0.98645    0.30429    0.59294    1.000
    C32      C        0.26355    0.80429    0.15706    1.000
    C32      C        0.23645    0.40706    0.55429    1.000
    C32      C        0.51355    0.84294    0.05429    1.000
    C32      C        0.73645    0.34294    0.69571    1.000
    C32      C        0.01355    0.90706    0.19571    1.000
    C32      C        0.40706    0.69571    0.01355    1.000
    C32      C        0.84294    0.19571    0.73645    1.000
    C32      C        0.34294    0.55429    0.51355    1.000
    C32      C        0.90706    0.05429    0.23645    1.000
    C32      C        0.69571    0.23645    0.84294    1.000
    C32      C        0.19571    0.51355    0.40706    1.000
    C32      C        0.55429    0.73645    0.90706    1.000
    C32      C        0.05429    0.01355    0.34294    1.000
    C32      C        0.34294    0.01355    0.05429    1.000
    C32      C        0.90706    0.73645    0.55429    1.000
    C32      C        0.40706    0.51355    0.19571    1.000
    C32      C        0.84294    0.23645    0.69571    1.000
    C32      C        0.05429    0.84294    0.51355    1.000
    C32      C        0.55429    0.40706    0.23645    1.000
    C32      C        0.19571    0.90706    0.01355    1.000
    C32      C        0.69571    0.34294    0.73645    1.000
    C32      C        0.51355    0.55429    0.34294    1.000
    C32      C        0.23645    0.05429    0.90706    1.000
    C32      C        0.01355    0.69571    0.40706    1.000
    C32      C        0.73645    0.19571    0.84294    1.000
    C32      C        0.76355    0.59294    0.44571    1.000
    C32      C        0.48645    0.15706    0.94571    1.000
    C32      C        0.26355    0.65706    0.30429    1.000
    C32      C        0.98645    0.09294    0.80429    1.000
    C32      C        0.59294    0.30429    0.98645    1.000
    C32      C        0.15706    0.80429    0.26355    1.000
    C32      C        0.65706    0.44571    0.48645    1.000
    C32      C        0.09294    0.94571    0.76355    1.000
    C32      C        0.30429    0.76355    0.15706    1.000
    C32      C        0.80429    0.48645    0.59294    1.000
    C32      C        0.44571    0.26355    0.09294    1.000
    C32      C        0.94571    0.98645    0.65706    1.000
    C32      C        0.65706    0.48645    0.44571    1.000
    C32      C        0.09294    0.76355    0.94571    1.000
    C32      C        0.59294    0.98645    0.30429    1.000
    C32      C        0.15706    0.26355    0.80429    1.000
    C32      C        0.94571    0.65706    0.98645    1.000
    C32      C        0.44571    0.09294    0.26355    1.000
    C32      C        0.80429    0.59294    0.48645    1.000
    C32      C        0.30429    0.15706    0.76355    1.000
    C32      C        0.48645    0.94571    0.15706    1.000
    C32      C        0.76355    0.44571    0.59294    1.000
    C32      C        0.98645    0.80429    0.09294    1.000
    C32      C        0.26355    0.30429    0.65706    1.000
    C32      C        0.23645    0.90706    0.05429    1.000
    C32      C        0.51355    0.34294    0.55429    1.000
    C32      C        0.73645    0.84294    0.19571    1.000
    C32      C        0.01355    0.40706    0.69571    1.000
    C32      C        0.40706    0.19571    0.51355    1.000
    C32      C        0.84294    0.69571    0.23645    1.000
    C32      C        0.34294    0.05429    0.01355    1.000
    C32      C        0.90706    0.55429    0.73645    1.000
    C32      C        0.69571    0.73645    0.34294    1.000
    C32      C        0.19571    0.01355    0.90706    1.000
    C32      C        0.55429    0.23645    0.40706    1.000
    C32      C        0.05429    0.51355    0.84294    1.000
    C32      C        0.34294    0.51355    0.55429    1.000
    C32      C        0.90706    0.23645    0.05429    1.000
    C32      C        0.40706    0.01355    0.69571    1.000
    C32      C        0.84294    0.73645    0.19571    1.000
    C32      C        0.05429    0.34294    0.01355    1.000
    C32      C        0.55429    0.90706    0.73645    1.000
    C32      C        0.19571    0.40706    0.51355    1.000
    C32      C        0.69571    0.84294    0.23645    1.000
    C32      C        0.51355    0.05429    0.84294    1.000
    C32      C        0.23645    0.55429    0.40706    1.000
    C32      C        0.01355    0.19571    0.90706    1.000
    C32      C        0.73645    0.69571    0.34294    1.000
    C32      C        0.76355    0.09294    0.94571    1.000
    C32      C        0.48645    0.65706    0.44571    1.000
    C32      C        0.26355    0.15706    0.80429    1.000
    C32      C        0.98645    0.59294    0.30429    1.000
    C32      C        0.59294    0.80429    0.48645    1.000
    C32      C        0.15706    0.30429    0.76355    1.000
    C32      C        0.65706    0.94571    0.98645    1.000
    C32      C        0.09294    0.44571    0.26355    1.000
    C32      C        0.30429    0.26355    0.65706    1.000
    C32      C        0.80429    0.98645    0.09294    1.000
    C32      C        0.44571    0.76355    0.59294    1.000
    C32      C        0.94571    0.48645    0.15706    1.000
    C33      C        0.56870    0.27464    0.94016    1.000
    C33      C        0.06870    0.47536    0.30984    1.000
    C33      C        0.68130    0.77464    0.80984    1.000
    C33      C        0.44016    0.18130    0.97536    1.000
    C33      C        0.94016    0.56870    0.27464    1.000
    C33      C        0.30984    0.06870    0.47536    1.000
    C33      C        0.80984    0.68130    0.77464    1.000
    C33      C        0.97536    0.44016    0.18130    1.000
    C33      C        0.27464    0.94016    0.56870    1.000
    C33      C        0.47536    0.30984    0.06870    1.000
    C33      C        0.77464    0.80984    0.68130    1.000
    C33      C        0.72536    0.43130    0.05984    1.000
    C33      C        0.02464    0.81870    0.55984    1.000
    C33      C        0.22536    0.31870    0.19016    1.000
    C33      C        0.52464    0.93130    0.69016    1.000
    C33      C        0.93130    0.69016    0.52464    1.000
    C33      C        0.31870    0.19016    0.22536    1.000
    C33      C        0.81870    0.55984    0.02464    1.000
    C33      C        0.43130    0.05984    0.72536    1.000
    C33      C        0.19016    0.22536    0.31870    1.000
    C33      C        0.69016    0.52464    0.93130    1.000
    C33      C        0.05984    0.72536    0.43130    1.000
    C33      C        0.55984    0.02464    0.81870    1.000
    C33      C        0.81870    0.02464    0.55984    1.000
    C33      C        0.43130    0.72536    0.05984    1.000
    C33      C        0.93130    0.52464    0.69016    1.000
    C33      C        0.31870    0.22536    0.19016    1.000
    C33      C        0.55984    0.81870    0.02464    1.000
    C33      C        0.05984    0.43130    0.72536    1.000
    C33      C        0.69016    0.93130    0.52464    1.000
    C33      C        0.19016    0.31870    0.22536    1.000
    C33      C        0.02464    0.55984    0.81870    1.000
    C33      C        0.72536    0.05984    0.43130    1.000
    C33      C        0.52464    0.69016    0.93130    1.000
    C33      C        0.22536    0.19016    0.31870    1.000
    C33      C        0.27464    0.56870    0.94016    1.000
    C33      C        0.97536    0.18130    0.44016    1.000
    C33      C        0.77464    0.68130    0.80984    1.000
    C33      C        0.47536    0.06870    0.30984    1.000
    C33      C        0.06870    0.30984    0.47536    1.000
    C33      C        0.68130    0.80984    0.77464    1.000
    C33      C        0.18130    0.44016    0.97536    1.000
    C33      C        0.56870    0.94016    0.27464    1.000
    C33      C        0.80984    0.77464    0.68130    1.000
    C33      C        0.30984    0.47536    0.06870    1.000
    C33      C        0.94016    0.27464    0.56870    1.000
    C33      C        0.44016    0.97536    0.18130    1.000
    C33      C        0.18130    0.47536    0.94016    1.000
    C33      C        0.56870    0.77464    0.44016    1.000
    C33      C        0.06870    0.97536    0.80984    1.000
    C33      C        0.68130    0.27464    0.30984    1.000
    C33      C        0.44016    0.68130    0.47536    1.000
    C33      C        0.94016    0.06870    0.77464    1.000
    C33      C        0.30984    0.56870    0.97536    1.000
    C33      C        0.80984    0.18130    0.27464    1.000
    C33      C        0.97536    0.94016    0.68130    1.000
    C33      C        0.27464    0.44016    0.06870    1.000
    C33      C        0.47536    0.80984    0.56870    1.000
    C33      C        0.77464    0.30984    0.18130    1.000
    C33      C        0.72536    0.93130    0.55984    1.000
    C33      C        0.02464    0.31870    0.05984    1.000
    C33      C        0.22536    0.81870    0.69016    1.000
    C33      C        0.52464    0.43130    0.19016    1.000
    C33      C        0.93130    0.19016    0.02464    1.000
    C33      C        0.31870    0.69016    0.72536    1.000
    C33      C        0.81870    0.05984    0.52464    1.000
    C33      C        0.43130    0.55984    0.22536    1.000
    C33      C        0.19016    0.72536    0.81870    1.000
    C33      C        0.69016    0.02464    0.43130    1.000
    C33      C        0.05984    0.22536    0.93130    1.000
    C33      C        0.55984    0.52464    0.31870    1.000
    C33      C        0.81870    0.52464    0.05984    1.000
    C33      C        0.43130    0.22536    0.55984    1.000
    C33      C        0.93130    0.02464    0.19016    1.000
    C33      C        0.31870    0.72536    0.69016    1.000
    C33      C        0.55984    0.31870    0.52464    1.000
    C33      C        0.05984    0.93130    0.22536    1.000
    C33      C        0.69016    0.43130    0.02464    1.000
    C33      C        0.19016    0.81870    0.72536    1.000
    C33      C        0.02464    0.05984    0.31870    1.000
    C33      C        0.72536    0.55984    0.93130    1.000
    C33      C        0.52464    0.19016    0.43130    1.000
    C33      C        0.22536    0.69016    0.81870    1.000
    C33      C        0.27464    0.06870    0.44016    1.000
    C33      C        0.97536    0.68130    0.94016    1.000
    C33      C        0.77464    0.18130    0.30984    1.000
    C33      C        0.47536    0.56870    0.80984    1.000
    C33      C        0.06870    0.80984    0.97536    1.000
    C33      C        0.68130    0.30984    0.27464    1.000
    C33      C        0.18130    0.94016    0.47536    1.000
    C33      C        0.56870    0.44016    0.77464    1.000
    C33      C        0.80984    0.27464    0.18130    1.000
    C33      C        0.30984    0.97536    0.56870    1.000
    C33      C        0.94016    0.77464    0.06870    1.000
    C33      C        0.44016    0.47536    0.68130    1.000
    C33      C        0.68130    0.97536    0.94016    1.000
    C33      C        0.06870    0.27464    0.44016    1.000
    C33      C        0.56870    0.47536    0.80984    1.000
    C33      C        0.18130    0.77464    0.30984    1.000
    C33      C        0.94016    0.18130    0.47536    1.000
    C33      C        0.44016    0.56870    0.77464    1.000
    C33      C        0.80984    0.06870    0.97536    1.000
    C33      C        0.30984    0.68130    0.27464    1.000
    C33      C        0.47536    0.44016    0.68130    1.000
    C33      C        0.77464    0.94016    0.06870    1.000
    C33      C        0.97536    0.30984    0.56870    1.000
    C33      C        0.27464    0.80984    0.18130    1.000
    C33      C        0.22536    0.43130    0.55984    1.000
    C33      C        0.52464    0.81870    0.05984    1.000
    C33      C        0.72536    0.31870    0.69016    1.000
    C33      C        0.02464    0.93130    0.19016    1.000
    C33      C        0.43130    0.69016    0.02464    1.000
    C33      C        0.81870    0.19016    0.72536    1.000
    C33      C        0.31870    0.55984    0.52464    1.000
    C33      C        0.93130    0.05984    0.22536    1.000
    C33      C        0.69016    0.22536    0.81870    1.000
    C33      C        0.19016    0.52464    0.43130    1.000
    C33      C        0.55984    0.72536    0.93130    1.000
    C33      C        0.05984    0.02464    0.31870    1.000
    C33      C        0.31870    0.02464    0.05984    1.000
    C33      C        0.93130    0.72536    0.55984    1.000
    C33      C        0.43130    0.52464    0.19016    1.000
    C33      C        0.81870    0.22536    0.69016    1.000
    C33      C        0.05984    0.81870    0.52464    1.000
    C33      C        0.55984    0.43130    0.22536    1.000
    C33      C        0.19016    0.93130    0.02464    1.000
    C33      C        0.69016    0.31870    0.72536    1.000
    C33      C        0.52464    0.55984    0.31870    1.000
    C33      C        0.22536    0.05984    0.93130    1.000
    C33      C        0.02464    0.69016    0.43130    1.000
    C33      C        0.72536    0.19016    0.81870    1.000
    C33      C        0.77464    0.56870    0.44016    1.000
    C33      C        0.47536    0.18130    0.94016    1.000
    C33      C        0.27464    0.68130    0.30984    1.000
    C33      C        0.97536    0.06870    0.80984    1.000
    C33      C        0.56870    0.30984    0.97536    1.000
    C33      C        0.18130    0.80984    0.27464    1.000
    C33      C        0.68130    0.44016    0.47536    1.000
    C33      C        0.06870    0.94016    0.77464    1.000
    C33      C        0.30984    0.77464    0.18130    1.000
    C33      C        0.80984    0.47536    0.56870    1.000
    C33      C        0.44016    0.27464    0.06870    1.000
    C33      C        0.94016    0.97536    0.68130    1.000
    C33      C        0.68130    0.47536    0.44016    1.000
    C33      C        0.06870    0.77464    0.94016    1.000
    C33      C        0.56870    0.97536    0.30984    1.000
    C33      C        0.18130    0.27464    0.80984    1.000
    C33      C        0.94016    0.68130    0.97536    1.000
    C33      C        0.44016    0.06870    0.27464    1.000
    C33      C        0.80984    0.56870    0.47536    1.000
    C33      C        0.30984    0.18130    0.77464    1.000
    C33      C        0.47536    0.94016    0.18130    1.000
    C33      C        0.77464    0.44016    0.56870    1.000
    C33      C        0.97536    0.80984    0.06870    1.000
    C33      C        0.27464    0.30984    0.68130    1.000
    C33      C        0.22536    0.93130    0.05984    1.000
    C33      C        0.52464    0.31870    0.55984    1.000
    C33      C        0.72536    0.81870    0.19016    1.000
    C33      C        0.02464    0.43130    0.69016    1.000
    C33      C        0.43130    0.19016    0.52464    1.000
    C33      C        0.81870    0.69016    0.22536    1.000
    C33      C        0.31870    0.05984    0.02464    1.000
    C33      C        0.93130    0.55984    0.72536    1.000
    C33      C        0.69016    0.72536    0.31870    1.000
    C33      C        0.19016    0.02464    0.93130    1.000
    C33      C        0.55984    0.22536    0.43130    1.000
    C33      C        0.05984    0.52464    0.81870    1.000
    C33      C        0.31870    0.52464    0.55984    1.000
    C33      C        0.93130    0.22536    0.05984    1.000
    C33      C        0.43130    0.02464    0.69016    1.000
    C33      C        0.81870    0.72536    0.19016    1.000
    C33      C        0.05984    0.31870    0.02464    1.000
    C33      C        0.55984    0.93130    0.72536    1.000
    C33      C        0.19016    0.43130    0.52464    1.000
    C33      C        0.69016    0.81870    0.22536    1.000
    C33      C        0.52464    0.05984    0.81870    1.000
    C33      C        0.22536    0.55984    0.43130    1.000
    C33      C        0.02464    0.19016    0.93130    1.000
    C33      C        0.72536    0.69016    0.31870    1.000
    C33      C        0.77464    0.06870    0.94016    1.000
    C33      C        0.47536    0.68130    0.44016    1.000
    C33      C        0.27464    0.18130    0.80984    1.000
    C33      C        0.97536    0.56870    0.30984    1.000
    C33      C        0.56870    0.80984    0.47536    1.000
    C33      C        0.18130    0.30984    0.77464    1.000
    C33      C        0.68130    0.94016    0.97536    1.000
    C33      C        0.06870    0.44016    0.27464    1.000
    C33      C        0.30984    0.27464    0.68130    1.000
    C33      C        0.80984    0.97536    0.06870    1.000
    C33      C        0.44016    0.77464    0.56870    1.000
    C33      C        0.94016    0.47536    0.18130    1.000
    C34      C        0.58211    0.26807    0.93518    1.000
    C34      C        0.08211    0.48193    0.31482    1.000
    C34      C        0.66789    0.76807    0.81482    1.000
    C34      C        0.43518    0.16789    0.98193    1.000
    C34      C        0.93518    0.58211    0.26807    1.000
    C34      C        0.31482    0.08211    0.48193    1.000
    C34      C        0.81482    0.66789    0.76807    1.000
    C34      C        0.98193    0.43518    0.16789    1.000
    C34      C        0.26807    0.93518    0.58211    1.000
    C34      C        0.48193    0.31482    0.08211    1.000
    C34      C        0.76807    0.81482    0.66789    1.000
    C34      C        0.73193    0.41789    0.06482    1.000
    C34      C        0.01807    0.83211    0.56482    1.000
    C34      C        0.23193    0.33211    0.18518    1.000
    C34      C        0.51807    0.91789    0.68518    1.000
    C34      C        0.91789    0.68518    0.51807    1.000
    C34      C        0.33211    0.18518    0.23193    1.000
    C34      C        0.83211    0.56482    0.01807    1.000
    C34      C        0.41789    0.06482    0.73193    1.000
    C34      C        0.18518    0.23193    0.33211    1.000
    C34      C        0.68518    0.51807    0.91789    1.000
    C34      C        0.06482    0.73193    0.41789    1.000
    C34      C        0.56482    0.01807    0.83211    1.000
    C34      C        0.83211    0.01807    0.56482    1.000
    C34      C        0.41789    0.73193    0.06482    1.000
    C34      C        0.91789    0.51807    0.68518    1.000
    C34      C        0.33211    0.23193    0.18518    1.000
    C34      C        0.56482    0.83211    0.01807    1.000
    C34      C        0.06482    0.41789    0.73193    1.000
    C34      C        0.68518    0.91789    0.51807    1.000
    C34      C        0.18518    0.33211    0.23193    1.000
    C34      C        0.01807    0.56482    0.83211    1.000
    C34      C        0.73193    0.06482    0.41789    1.000
    C34      C        0.51807    0.68518    0.91789    1.000
    C34      C        0.23193    0.18518    0.33211    1.000
    C34      C        0.26807    0.58211    0.93518    1.000
    C34      C        0.98193    0.16789    0.43518    1.000
    C34      C        0.76807    0.66789    0.81482    1.000
    C34      C        0.48193    0.08211    0.31482    1.000
    C34      C        0.08211    0.31482    0.48193    1.000
    C34      C        0.66789    0.81482    0.76807    1.000
    C34      C        0.16789    0.43518    0.98193    1.000
    C34      C        0.58211    0.93518    0.26807    1.000
    C34      C        0.81482    0.76807    0.66789    1.000
    C34      C        0.31482    0.48193    0.08211    1.000
    C34      C        0.93518    0.26807    0.58211    1.000
    C34      C        0.43518    0.98193    0.16789    1.000
    C34      C        0.16789    0.48193    0.93518    1.000
    C34      C        0.58211    0.76807    0.43518    1.000
    C34      C        0.08211    0.98193    0.81482    1.000
    C34      C        0.66789    0.26807    0.31482    1.000
    C34      C        0.43518    0.66789    0.48193    1.000
    C34      C        0.93518    0.08211    0.76807    1.000
    C34      C        0.31482    0.58211    0.98193    1.000
    C34      C        0.81482    0.16789    0.26807    1.000
    C34      C        0.98193    0.93518    0.66789    1.000
    C34      C        0.26807    0.43518    0.08211    1.000
    C34      C        0.48193    0.81482    0.58211    1.000
    C34      C        0.76807    0.31482    0.16789    1.000
    C34      C        0.73193    0.91789    0.56482    1.000
    C34      C        0.01807    0.33211    0.06482    1.000
    C34      C        0.23193    0.83211    0.68518    1.000
    C34      C        0.51807    0.41789    0.18518    1.000
    C34      C        0.91789    0.18518    0.01807    1.000
    C34      C        0.33211    0.68518    0.73193    1.000
    C34      C        0.83211    0.06482    0.51807    1.000
    C34      C        0.41789    0.56482    0.23193    1.000
    C34      C        0.18518    0.73193    0.83211    1.000
    C34      C        0.68518    0.01807    0.41789    1.000
    C34      C        0.06482    0.23193    0.91789    1.000
    C34      C        0.56482    0.51807    0.33211    1.000
    C34      C        0.83211    0.51807    0.06482    1.000
    C34      C        0.41789    0.23193    0.56482    1.000
    C34      C        0.91789    0.01807    0.18518    1.000
    C34      C        0.33211    0.73193    0.68518    1.000
    C34      C        0.56482    0.33211    0.51807    1.000
    C34      C        0.06482    0.91789    0.23193    1.000
    C34      C        0.68518    0.41789    0.01807    1.000
    C34      C        0.18518    0.83211    0.73193    1.000
    C34      C        0.01807    0.06482    0.33211    1.000
    C34      C        0.73193    0.56482    0.91789    1.000
    C34      C        0.51807    0.18518    0.41789    1.000
    C34      C        0.23193    0.68518    0.83211    1.000
    C34      C        0.26807    0.08211    0.43518    1.000
    C34      C        0.98193    0.66789    0.93518    1.000
    C34      C        0.76807    0.16789    0.31482    1.000
    C34      C        0.48193    0.58211    0.81482    1.000
    C34      C        0.08211    0.81482    0.98193    1.000
    C34      C        0.66789    0.31482    0.26807    1.000
    C34      C        0.16789    0.93518    0.48193    1.000
    C34      C        0.58211    0.43518    0.76807    1.000
    C34      C        0.81482    0.26807    0.16789    1.000
    C34      C        0.31482    0.98193    0.58211    1.000
    C34      C        0.93518    0.76807    0.08211    1.000
    C34      C        0.43518    0.48193    0.66789    1.000
    C34      C        0.66789    0.98193    0.93518    1.000
    C34      C        0.08211    0.26807    0.43518    1.000
    C34      C        0.58211    0.48193    0.81482    1.000
    C34      C        0.16789    0.76807    0.31482    1.000
    C34      C        0.93518    0.16789    0.48193    1.000
    C34      C        0.43518    0.58211    0.76807    1.000
    C34      C        0.81482    0.08211    0.98193    1.000
    C34      C        0.31482    0.66789    0.26807    1.000
    C34      C        0.48193    0.43518    0.66789    1.000
    C34      C        0.76807    0.93518    0.08211    1.000
    C34      C        0.98193    0.31482    0.58211    1.000
    C34      C        0.26807    0.81482    0.16789    1.000
    C34      C        0.23193    0.41789    0.56482    1.000
    C34      C        0.51807    0.83211    0.06482    1.000
    C34      C        0.73193    0.33211    0.68518    1.000
    C34      C        0.01807    0.91789    0.18518    1.000
    C34      C        0.41789    0.68518    0.01807    1.000
    C34      C        0.83211    0.18518    0.73193    1.000
    C34      C        0.33211    0.56482    0.51807    1.000
    C34      C        0.91789    0.06482    0.23193    1.000
    C34      C        0.68518    0.23193    0.83211    1.000
    C34      C        0.18518    0.51807    0.41789    1.000
    C34      C        0.56482    0.73193    0.91789    1.000
    C34      C        0.06482    0.01807    0.33211    1.000
    C34      C        0.33211    0.01807    0.06482    1.000
    C34      C        0.91789    0.73193    0.56482    1.000
    C34      C        0.41789    0.51807    0.18518    1.000
    C34      C        0.83211    0.23193    0.68518    1.000
    C34      C        0.06482    0.83211    0.51807    1.000
    C34      C        0.56482    0.41789    0.23193    1.000
    C34      C        0.18518    0.91789    0.01807    1.000
    C34      C        0.68518    0.33211    0.73193    1.000
    C34      C        0.51807    0.56482    0.33211    1.000
    C34      C        0.23193    0.06482    0.91789    1.000
    C34      C        0.01807    0.68518    0.41789    1.000
    C34      C        0.73193    0.18518    0.83211    1.000
    C34      C        0.76807    0.58211    0.43518    1.000
    C34      C        0.48193    0.16789    0.93518    1.000
    C34      C        0.26807    0.66789    0.31482    1.000
    C34      C        0.98193    0.08211    0.81482    1.000
    C34      C        0.58211    0.31482    0.98193    1.000
    C34      C        0.16789    0.81482    0.26807    1.000
    C34      C        0.66789    0.43518    0.48193    1.000
    C34      C        0.08211    0.93518    0.76807    1.000
    C34      C        0.31482    0.76807    0.16789    1.000
    C34      C        0.81482    0.48193    0.58211    1.000
    C34      C        0.43518    0.26807    0.08211    1.000
    C34      C        0.93518    0.98193    0.66789    1.000
    C34      C        0.66789    0.48193    0.43518    1.000
    C34      C        0.08211    0.76807    0.93518    1.000
    C34      C        0.58211    0.98193    0.31482    1.000
    C34      C        0.16789    0.26807    0.81482    1.000
    C34      C        0.93518    0.66789    0.98193    1.000
    C34      C        0.43518    0.08211    0.26807    1.000
    C34      C        0.81482    0.58211    0.48193    1.000
    C34      C        0.31482    0.16789    0.76807    1.000
    C34      C        0.48193    0.93518    0.16789    1.000
    C34      C        0.76807    0.43518    0.58211    1.000
    C34      C        0.98193    0.81482    0.08211    1.000
    C34      C        0.26807    0.31482    0.66789    1.000
    C34      C        0.23193    0.91789    0.06482    1.000
    C34      C        0.51807    0.33211    0.56482    1.000
    C34      C        0.73193    0.83211    0.18518    1.000
    C34      C        0.01807    0.41789    0.68518    1.000
    C34      C        0.41789    0.18518    0.51807    1.000
    C34      C        0.83211    0.68518    0.23193    1.000
    C34      C        0.33211    0.06482    0.01807    1.000
    C34      C        0.91789    0.56482    0.73193    1.000
    C34      C        0.68518    0.73193    0.33211    1.000
    C34      C        0.18518    0.01807    0.91789    1.000
    C34      C        0.56482    0.23193    0.41789    1.000
    C34      C        0.06482    0.51807    0.83211    1.000
    C34      C        0.33211    0.51807    0.56482    1.000
    C34      C        0.91789    0.23193    0.06482    1.000
    C34      C        0.41789    0.01807    0.68518    1.000
    C34      C        0.83211    0.73193    0.18518    1.000
    C34      C        0.06482    0.33211    0.01807    1.000
    C34      C        0.56482    0.91789    0.73193    1.000
    C34      C        0.18518    0.41789    0.51807    1.000
    C34      C        0.68518    0.83211    0.23193    1.000
    C34      C        0.51807    0.06482    0.83211    1.000
    C34      C        0.23193    0.56482    0.41789    1.000
    C34      C        0.01807    0.18518    0.91789    1.000
    C34      C        0.73193    0.68518    0.33211    1.000
    C34      C        0.76807    0.08211    0.93518    1.000
    C34      C        0.48193    0.66789    0.43518    1.000
    C34      C        0.26807    0.16789    0.81482    1.000
    C34      C        0.98193    0.58211    0.31482    1.000
    C34      C        0.58211    0.81482    0.48193    1.000
    C34      C        0.16789    0.31482    0.76807    1.000
    C34      C        0.66789    0.93518    0.98193    1.000
    C34      C        0.08211    0.43518    0.26807    1.000
    C34      C        0.31482    0.26807    0.66789    1.000
    C34      C        0.81482    0.98193    0.08211    1.000
    C34      C        0.43518    0.76807    0.58211    1.000
    C34      C        0.93518    0.48193    0.16789    1.000
    C35      C        0.60578    0.25617    0.94076    1.000
    C35      C        0.10578    0.49383    0.30924    1.000
    C35      C        0.64422    0.75617    0.80924    1.000
    C35      C        0.44076    0.14422    0.99383    1.000
    C35      C        0.94076    0.60578    0.25617    1.000
    C35      C        0.30924    0.10578    0.49383    1.000
    C35      C        0.80924    0.64422    0.75617    1.000
    C35      C        0.99383    0.44076    0.14422    1.000
    C35      C        0.25617    0.94076    0.60578    1.000
    C35      C        0.49383    0.30924    0.10578    1.000
    C35      C        0.75617    0.80924    0.64422    1.000
    C35      C        0.74383    0.39422    0.05924    1.000
    C35      C        0.00617    0.85578    0.55924    1.000
    C35      C        0.24383    0.35578    0.19076    1.000
    C35      C        0.50617    0.89422    0.69076    1.000
    C35      C        0.89422    0.69076    0.50617    1.000
    C35      C        0.35578    0.19076    0.24383    1.000
    C35      C        0.85578    0.55924    0.00617    1.000
    C35      C        0.39422    0.05924    0.74383    1.000
    C35      C        0.19076    0.24383    0.35578    1.000
    C35      C        0.69076    0.50617    0.89422    1.000
    C35      C        0.05924    0.74383    0.39422    1.000
    C35      C        0.55924    0.00617    0.85578    1.000
    C35      C        0.85578    0.00617    0.55924    1.000
    C35      C        0.39422    0.74383    0.05924    1.000
    C35      C        0.89422    0.50617    0.69076    1.000
    C35      C        0.35578    0.24383    0.19076    1.000
    C35      C        0.55924    0.85578    0.00617    1.000
    C35      C        0.05924    0.39422    0.74383    1.000
    C35      C        0.69076    0.89422    0.50617    1.000
    C35      C        0.19076    0.35578    0.24383    1.000
    C35      C        0.00617    0.55924    0.85578    1.000
    C35      C        0.74383    0.05924    0.39422    1.000
    C35      C        0.50617    0.69076    0.89422    1.000
    C35      C        0.24383    0.19076    0.35578    1.000
    C35      C        0.25617    0.60578    0.94076    1.000
    C35      C        0.99383    0.14422    0.44076    1.000
    C35      C        0.75617    0.64422    0.80924    1.000
    C35      C        0.49383    0.10578    0.30924    1.000
    C35      C        0.10578    0.30924    0.49383    1.000
    C35      C        0.64422    0.80924    0.75617    1.000
    C35      C        0.14422    0.44076    0.99383    1.000
    C35      C        0.60578    0.94076    0.25617    1.000
    C35      C        0.80924    0.75617    0.64422    1.000
    C35      C        0.30924    0.49383    0.10578    1.000
    C35      C        0.94076    0.25617    0.60578    1.000
    C35      C        0.44076    0.99383    0.14422    1.000
    C35      C        0.14422    0.49383    0.94076    1.000
    C35      C        0.60578    0.75617    0.44076    1.000
    C35      C        0.10578    0.99383    0.80924    1.000
    C35      C        0.64422    0.25617    0.30924    1.000
    C35      C        0.44076    0.64422    0.49383    1.000
    C35      C        0.94076    0.10578    0.75617    1.000
    C35      C        0.30924    0.60578    0.99383    1.000
    C35      C        0.80924    0.14422    0.25617    1.000
    C35      C        0.99383    0.94076    0.64422    1.000
    C35      C        0.25617    0.44076    0.10578    1.000
    C35      C        0.49383    0.80924    0.60578    1.000
    C35      C        0.75617    0.30924    0.14422    1.000
    C35      C        0.74383    0.89422    0.55924    1.000
    C35      C        0.00617    0.35578    0.05924    1.000
    C35      C        0.24383    0.85578    0.69076    1.000
    C35      C        0.50617    0.39422    0.19076    1.000
    C35      C        0.89422    0.19076    0.00617    1.000
    C35      C        0.35578    0.69076    0.74383    1.000
    C35      C        0.85578    0.05924    0.50617    1.000
    C35      C        0.39422    0.55924    0.24383    1.000
    C35      C        0.19076    0.74383    0.85578    1.000
    C35      C        0.69076    0.00617    0.39422    1.000
    C35      C        0.05924    0.24383    0.89422    1.000
    C35      C        0.55924    0.50617    0.35578    1.000
    C35      C        0.85578    0.50617    0.05924    1.000
    C35      C        0.39422    0.24383    0.55924    1.000
    C35      C        0.89422    0.00617    0.19076    1.000
    C35      C        0.35578    0.74383    0.69076    1.000
    C35      C        0.55924    0.35578    0.50617    1.000
    C35      C        0.05924    0.89422    0.24383    1.000
    C35      C        0.69076    0.39422    0.00617    1.000
    C35      C        0.19076    0.85578    0.74383    1.000
    C35      C        0.00617    0.05924    0.35578    1.000
    C35      C        0.74383    0.55924    0.89422    1.000
    C35      C        0.50617    0.19076    0.39422    1.000
    C35      C        0.24383    0.69076    0.85578    1.000
    C35      C        0.25617    0.10578    0.44076    1.000
    C35      C        0.99383    0.64422    0.94076    1.000
    C35      C        0.75617    0.14422    0.30924    1.000
    C35      C        0.49383    0.60578    0.80924    1.000
    C35      C        0.10578    0.80924    0.99383    1.000
    C35      C        0.64422    0.30924    0.25617    1.000
    C35      C        0.14422    0.94076    0.49383    1.000
    C35      C        0.60578    0.44076    0.75617    1.000
    C35      C        0.80924    0.25617    0.14422    1.000
    C35      C        0.30924    0.99383    0.60578    1.000
    C35      C        0.94076    0.75617    0.10578    1.000
    C35      C        0.44076    0.49383    0.64422    1.000
    C35      C        0.64422    0.99383    0.94076    1.000
    C35      C        0.10578    0.25617    0.44076    1.000
    C35      C        0.60578    0.49383    0.80924    1.000
    C35      C        0.14422    0.75617    0.30924    1.000
    C35      C        0.94076    0.14422    0.49383    1.000
    C35      C        0.44076    0.60578    0.75617    1.000
    C35      C        0.80924    0.10578    0.99383    1.000
    C35      C        0.30924    0.64422    0.25617    1.000
    C35      C        0.49383    0.44076    0.64422    1.000
    C35      C        0.75617    0.94076    0.10578    1.000
    C35      C        0.99383    0.30924    0.60578    1.000
    C35      C        0.25617    0.80924    0.14422    1.000
    C35      C        0.24383    0.39422    0.55924    1.000
    C35      C        0.50617    0.85578    0.05924    1.000
    C35      C        0.74383    0.35578    0.69076    1.000
    C35      C        0.00617    0.89422    0.19076    1.000
    C35      C        0.39422    0.69076    0.00617    1.000
    C35      C        0.85578    0.19076    0.74383    1.000
    C35      C        0.35578    0.55924    0.50617    1.000
    C35      C        0.89422    0.05924    0.24383    1.000
    C35      C        0.69076    0.24383    0.85578    1.000
    C35      C        0.19076    0.50617    0.39422    1.000
    C35      C        0.55924    0.74383    0.89422    1.000
    C35      C        0.05924    0.00617    0.35578    1.000
    C35      C        0.35578    0.00617    0.05924    1.000
    C35      C        0.89422    0.74383    0.55924    1.000
    C35      C        0.39422    0.50617    0.19076    1.000
    C35      C        0.85578    0.24383    0.69076    1.000
    C35      C        0.05924    0.85578    0.50617    1.000
    C35      C        0.55924    0.39422    0.24383    1.000
    C35      C        0.19076    0.89422    0.00617    1.000
    C35      C        0.69076    0.35578    0.74383    1.000
    C35      C        0.50617    0.55924    0.35578    1.000
    C35      C        0.24383    0.05924    0.89422    1.000
    C35      C        0.00617    0.69076    0.39422    1.000
    C35      C        0.74383    0.19076    0.85578    1.000
    C35      C        0.75617    0.60578    0.44076    1.000
    C35      C        0.49383    0.14422    0.94076    1.000
    C35      C        0.25617    0.64422    0.30924    1.000
    C35      C        0.99383    0.10578    0.80924    1.000
    C35      C        0.60578    0.30924    0.99383    1.000
    C35      C        0.14422    0.80924    0.25617    1.000
    C35      C        0.64422    0.44076    0.49383    1.000
    C35      C        0.10578    0.94076    0.75617    1.000
    C35      C        0.30924    0.75617    0.14422    1.000
    C35      C        0.80924    0.49383    0.60578    1.000
    C35      C        0.44076    0.25617    0.10578    1.000
    C35      C        0.94076    0.99383    0.64422    1.000
    C35      C        0.64422    0.49383    0.44076    1.000
    C35      C        0.10578    0.75617    0.94076    1.000
    C35      C        0.60578    0.99383    0.30924    1.000
    C35      C        0.14422    0.25617    0.80924    1.000
    C35      C        0.94076    0.64422    0.99383    1.000
    C35      C        0.44076    0.10578    0.25617    1.000
    C35      C        0.80924    0.60578    0.49383    1.000
    C35      C        0.30924    0.14422    0.75617    1.000
    C35      C        0.49383    0.94076    0.14422    1.000
    C35      C        0.75617    0.44076    0.60578    1.000
    C35      C        0.99383    0.80924    0.10578    1.000
    C35      C        0.25617    0.30924    0.64422    1.000
    C35      C        0.24383    0.89422    0.05924    1.000
    C35      C        0.50617    0.35578    0.55924    1.000
    C35      C        0.74383    0.85578    0.19076    1.000
    C35      C        0.00617    0.39422    0.69076    1.000
    C35      C        0.39422    0.19076    0.50617    1.000
    C35      C        0.85578    0.69076    0.24383    1.000
    C35      C        0.35578    0.05924    0.00617    1.000
    C35      C        0.89422    0.55924    0.74383    1.000
    C35      C        0.69076    0.74383    0.35578    1.000
    C35      C        0.19076    0.00617    0.89422    1.000
    C35      C        0.55924    0.24383    0.39422    1.000
    C35      C        0.05924    0.50617    0.85578    1.000
    C35      C        0.35578    0.50617    0.55924    1.000
    C35      C        0.89422    0.24383    0.05924    1.000
    C35      C        0.39422    0.00617    0.69076    1.000
    C35      C        0.85578    0.74383    0.19076    1.000
    C35      C        0.05924    0.35578    0.00617    1.000
    C35      C        0.55924    0.89422    0.74383    1.000
    C35      C        0.19076    0.39422    0.50617    1.000
    C35      C        0.69076    0.85578    0.24383    1.000
    C35      C        0.50617    0.05924    0.85578    1.000
    C35      C        0.24383    0.55924    0.39422    1.000
    C35      C        0.00617    0.19076    0.89422    1.000
    C35      C        0.74383    0.69076    0.35578    1.000
    C35      C        0.75617    0.10578    0.94076    1.000
    C35      C        0.49383    0.64422    0.44076    1.000
    C35      C        0.25617    0.14422    0.80924    1.000
    C35      C        0.99383    0.60578    0.30924    1.000
    C35      C        0.60578    0.80924    0.49383    1.000
    C35      C        0.14422    0.30924    0.75617    1.000
    C35      C        0.64422    0.94076    0.99383    1.000
    C35      C        0.10578    0.44076    0.25617    1.000
    C35      C        0.30924    0.25617    0.64422    1.000
    C35      C        0.80924    0.99383    0.10578    1.000
    C35      C        0.44076    0.75617    0.60578    1.000
    C35      C        0.94076    0.49383    0.14422    1.000
    C36      C        0.62253    0.25095    0.91918    1.000
    C36      C        0.12253    0.49905    0.33082    1.000
    C36      C        0.62747    0.75095    0.83082    1.000
    C36      C        0.41918    0.12747    0.99905    1.000
    C36      C        0.91918    0.62253    0.25095    1.000
    C36      C        0.33082    0.12253    0.49905    1.000
    C36      C        0.83082    0.62747    0.75095    1.000
    C36      C        0.99905    0.41918    0.12747    1.000
    C36      C        0.25095    0.91918    0.62253    1.000
    C36      C        0.49905    0.33082    0.12253    1.000
    C36      C        0.75095    0.83082    0.62747    1.000
    C36      C        0.74905    0.37747    0.08082    1.000
    C36      C        0.00095    0.87253    0.58082    1.000
    C36      C        0.24905    0.37253    0.16918    1.000
    C36      C        0.50095    0.87747    0.66918    1.000
    C36      C        0.87747    0.66918    0.50095    1.000
    C36      C        0.37253    0.16918    0.24905    1.000
    C36      C        0.87253    0.58082    0.00095    1.000
    C36      C        0.37747    0.08082    0.74905    1.000
    C36      C        0.16918    0.24905    0.37253    1.000
    C36      C        0.66918    0.50095    0.87747    1.000
    C36      C        0.08082    0.74905    0.37747    1.000
    C36      C        0.58082    0.00095    0.87253    1.000
    C36      C        0.87253    0.00095    0.58082    1.000
    C36      C        0.37747    0.74905    0.08082    1.000
    C36      C        0.87747    0.50095    0.66918    1.000
    C36      C        0.37253    0.24905    0.16918    1.000
    C36      C        0.58082    0.87253    0.00095    1.000
    C36      C        0.08082    0.37747    0.74905    1.000
    C36      C        0.66918    0.87747    0.50095    1.000
    C36      C        0.16918    0.37253    0.24905    1.000
    C36      C        0.00095    0.58082    0.87253    1.000
    C36      C        0.74905    0.08082    0.37747    1.000
    C36      C        0.50095    0.66918    0.87747    1.000
    C36      C        0.24905    0.16918    0.37253    1.000
    C36      C        0.25095    0.62253    0.91918    1.000
    C36      C        0.99905    0.12747    0.41918    1.000
    C36      C        0.75095    0.62747    0.83082    1.000
    C36      C        0.49905    0.12253    0.33082    1.000
    C36      C        0.12253    0.33082    0.49905    1.000
    C36      C        0.62747    0.83082    0.75095    1.000
    C36      C        0.12747    0.41918    0.99905    1.000
    C36      C        0.62253    0.91918    0.25095    1.000
    C36      C        0.83082    0.75095    0.62747    1.000
    C36      C        0.33082    0.49905    0.12253    1.000
    C36      C        0.91918    0.25095    0.62253    1.000
    C36      C        0.41918    0.99905    0.12747    1.000
    C36      C        0.12747    0.49905    0.91918    1.000
    C36      C        0.62253    0.75095    0.41918    1.000
    C36      C        0.12253    0.99905    0.83082    1.000
    C36      C        0.62747    0.25095    0.33082    1.000
    C36      C        0.41918    0.62747    0.49905    1.000
    C36      C        0.91918    0.12253    0.75095    1.000
    C36      C        0.33082    0.62253    0.99905    1.000
    C36      C        0.83082    0.12747    0.25095    1.000
    C36      C        0.99905    0.91918    0.62747    1.000
    C36      C        0.25095    0.41918    0.12253    1.000
    C36      C        0.49905    0.83082    0.62253    1.000
    C36      C        0.75095    0.33082    0.12747    1.000
    C36      C        0.74905    0.87747    0.58082    1.000
    C36      C        0.00095    0.37253    0.08082    1.000
    C36      C        0.24905    0.87253    0.66918    1.000
    C36      C        0.50095    0.37747    0.16918    1.000
    C36      C        0.87747    0.16918    0.00095    1.000
    C36      C        0.37253    0.66918    0.74905    1.000
    C36      C        0.87253    0.08082    0.50095    1.000
    C36      C        0.37747    0.58082    0.24905    1.000
    C36      C        0.16918    0.74905    0.87253    1.000
    C36      C        0.66918    0.00095    0.37747    1.000
    C36      C        0.08082    0.24905    0.87747    1.000
    C36      C        0.58082    0.50095    0.37253    1.000
    C36      C        0.87253    0.50095    0.08082    1.000
    C36      C        0.37747    0.24905    0.58082    1.000
    C36      C        0.87747    0.00095    0.16918    1.000
    C36      C        0.37253    0.74905    0.66918    1.000
    C36      C        0.58082    0.37253    0.50095    1.000
    C36      C        0.08082    0.87747    0.24905    1.000
    C36      C        0.66918    0.37747    0.00095    1.000
    C36      C        0.16918    0.87253    0.74905    1.000
    C36      C        0.00095    0.08082    0.37253    1.000
    C36      C        0.74905    0.58082    0.87747    1.000
    C36      C        0.50095    0.16918    0.37747    1.000
    C36      C        0.24905    0.66918    0.87253    1.000
    C36      C        0.25095    0.12253    0.41918    1.000
    C36      C        0.99905    0.62747    0.91918    1.000
    C36      C        0.75095    0.12747    0.33082    1.000
    C36      C        0.49905    0.62253    0.83082    1.000
    C36      C        0.12253    0.83082    0.99905    1.000
    C36      C        0.62747    0.33082    0.25095    1.000
    C36      C        0.12747    0.91918    0.49905    1.000
    C36      C        0.62253    0.41918    0.75095    1.000
    C36      C        0.83082    0.25095    0.12747    1.000
    C36      C        0.33082    0.99905    0.62253    1.000
    C36      C        0.91918    0.75095    0.12253    1.000
    C36      C        0.41918    0.49905    0.62747    1.000
    C36      C        0.62747    0.99905    0.91918    1.000
    C36      C        0.12253    0.25095    0.41918    1.000
    C36      C        0.62253    0.49905    0.83082    1.000
    C36      C        0.12747    0.75095    0.33082    1.000
    C36      C        0.91918    0.12747    0.49905    1.000
    C36      C        0.41918    0.62253    0.75095    1.000
    C36      C        0.83082    0.12253    0.99905    1.000
    C36      C        0.33082    0.62747    0.25095    1.000
    C36      C        0.49905    0.41918    0.62747    1.000
    C36      C        0.75095    0.91918    0.12253    1.000
    C36      C        0.99905    0.33082    0.62253    1.000
    C36      C        0.25095    0.83082    0.12747    1.000
    C36      C        0.24905    0.37747    0.58082    1.000
    C36      C        0.50095    0.87253    0.08082    1.000
    C36      C        0.74905    0.37253    0.66918    1.000
    C36      C        0.00095    0.87747    0.16918    1.000
    C36      C        0.37747    0.66918    0.00095    1.000
    C36      C        0.87253    0.16918    0.74905    1.000
    C36      C        0.37253    0.58082    0.50095    1.000
    C36      C        0.87747    0.08082    0.24905    1.000
    C36      C        0.66918    0.24905    0.87253    1.000
    C36      C        0.16918    0.50095    0.37747    1.000
    C36      C        0.58082    0.74905    0.87747    1.000
    C36      C        0.08082    0.00095    0.37253    1.000
    C36      C        0.37253    0.00095    0.08082    1.000
    C36      C        0.87747    0.74905    0.58082    1.000
    C36      C        0.37747    0.50095    0.16918    1.000
    C36      C        0.87253    0.24905    0.66918    1.000
    C36      C        0.08082    0.87253    0.50095    1.000
    C36      C        0.58082    0.37747    0.24905    1.000
    C36      C        0.16918    0.87747    0.00095    1.000
    C36      C        0.66918    0.37253    0.74905    1.000
    C36      C        0.50095    0.58082    0.37253    1.000
    C36      C        0.24905    0.08082    0.87747    1.000
    C36      C        0.00095    0.66918    0.37747    1.000
    C36      C        0.74905    0.16918    0.87253    1.000
    C36      C        0.75095    0.62253    0.41918    1.000
    C36      C        0.49905    0.12747    0.91918    1.000
    C36      C        0.25095    0.62747    0.33082    1.000
    C36      C        0.99905    0.12253    0.83082    1.000
    C36      C        0.62253    0.33082    0.99905    1.000
    C36      C        0.12747    0.83082    0.25095    1.000
    C36      C        0.62747    0.41918    0.49905    1.000
    C36      C        0.12253    0.91918    0.75095    1.000
    C36      C        0.33082    0.75095    0.12747    1.000
    C36      C        0.83082    0.49905    0.62253    1.000
    C36      C        0.41918    0.25095    0.12253    1.000
    C36      C        0.91918    0.99905    0.62747    1.000
    C36      C        0.62747    0.49905    0.41918    1.000
    C36      C        0.12253    0.75095    0.91918    1.000
    C36      C        0.62253    0.99905    0.33082    1.000
    C36      C        0.12747    0.25095    0.83082    1.000
    C36      C        0.91918    0.62747    0.99905    1.000
    C36      C        0.41918    0.12253    0.25095    1.000
    C36      C        0.83082    0.62253    0.49905    1.000
    C36      C        0.33082    0.12747    0.75095    1.000
    C36      C        0.49905    0.91918    0.12747    1.000
    C36      C        0.75095    0.41918    0.62253    1.000
    C36      C        0.99905    0.83082    0.12253    1.000
    C36      C        0.25095    0.33082    0.62747    1.000
    C36      C        0.24905    0.87747    0.08082    1.000
    C36      C        0.50095    0.37253    0.58082    1.000
    C36      C        0.74905    0.87253    0.16918    1.000
    C36      C        0.00095    0.37747    0.66918    1.000
    C36      C        0.37747    0.16918    0.50095    1.000
    C36      C        0.87253    0.66918    0.24905    1.000
    C36      C        0.37253    0.08082    0.00095    1.000
    C36      C        0.87747    0.58082    0.74905    1.000
    C36      C        0.66918    0.74905    0.37253    1.000
    C36      C        0.16918    0.00095    0.87747    1.000
    C36      C        0.58082    0.24905    0.37747    1.000
    C36      C        0.08082    0.50095    0.87253    1.000
    C36      C        0.37253    0.50095    0.58082    1.000
    C36      C        0.87747    0.24905    0.08082    1.000
    C36      C        0.37747    0.00095    0.66918    1.000
    C36      C        0.87253    0.74905    0.16918    1.000
    C36      C        0.08082    0.37253    0.00095    1.000
    C36      C        0.58082    0.87747    0.74905    1.000
    C36      C        0.16918    0.37747    0.50095    1.000
    C36      C        0.66918    0.87253    0.24905    1.000
    C36      C        0.50095    0.08082    0.87253    1.000
    C36      C        0.24905    0.58082    0.37747    1.000
    C36      C        0.00095    0.16918    0.87747    1.000
    C36      C        0.74905    0.66918    0.37253    1.000
    C36      C        0.75095    0.12253    0.91918    1.000
    C36      C        0.49905    0.62747    0.41918    1.000
    C36      C        0.25095    0.12747    0.83082    1.000
    C36      C        0.99905    0.62253    0.33082    1.000
    C36      C        0.62253    0.83082    0.49905    1.000
    C36      C        0.12747    0.33082    0.75095    1.000
    C36      C        0.62747    0.91918    0.99905    1.000
    C36      C        0.12253    0.41918    0.25095    1.000
    C36      C        0.33082    0.25095    0.62747    1.000
    C36      C        0.83082    0.99905    0.12253    1.000
    C36      C        0.41918    0.75095    0.62253    1.000
    C36      C        0.91918    0.49905    0.12747    1.000
    C37      C        0.60825    0.25489    0.92522    1.000
    C37      C        0.10825    0.49511    0.32478    1.000
    C37      C        0.64175    0.75489    0.82478    1.000
    C37      C        0.42522    0.14175    0.99511    1.000
    C37      C        0.92522    0.60825    0.25489    1.000
    C37      C        0.32478    0.10825    0.49511    1.000
    C37      C        0.82478    0.64175    0.75489    1.000
    C37      C        0.99511    0.42522    0.14175    1.000
    C37      C        0.25489    0.92522    0.60825    1.000
    C37      C        0.49511    0.32478    0.10825    1.000
    C37      C        0.75489    0.82478    0.64175    1.000
    C37      C        0.74511    0.39175    0.07478    1.000
    C37      C        0.00489    0.85825    0.57478    1.000
    C37      C        0.24511    0.35825    0.17522    1.000
    C37      C        0.50489    0.89175    0.67522    1.000
    C37      C        0.89175    0.67522    0.50489    1.000
    C37      C        0.35825    0.17522    0.24511    1.000
    C37      C        0.85825    0.57478    0.00489    1.000
    C37      C        0.39175    0.07478    0.74511    1.000
    C37      C        0.17522    0.24511    0.35825    1.000
    C37      C        0.67522    0.50489    0.89175    1.000
    C37      C        0.07478    0.74511    0.39175    1.000
    C37      C        0.57478    0.00489    0.85825    1.000
    C37      C        0.85825    0.00489    0.57478    1.000
    C37      C        0.39175    0.74511    0.07478    1.000
    C37      C        0.89175    0.50489    0.67522    1.000
    C37      C        0.35825    0.24511    0.17522    1.000
    C37      C        0.57478    0.85825    0.00489    1.000
    C37      C        0.07478    0.39175    0.74511    1.000
    C37      C        0.67522    0.89175    0.50489    1.000
    C37      C        0.17522    0.35825    0.24511    1.000
    C37      C        0.00489    0.57478    0.85825    1.000
    C37      C        0.74511    0.07478    0.39175    1.000
    C37      C        0.50489    0.67522    0.89175    1.000
    C37      C        0.24511    0.17522    0.35825    1.000
    C37      C        0.25489    0.60825    0.92522    1.000
    C37      C        0.99511    0.14175    0.42522    1.000
    C37      C        0.75489    0.64175    0.82478    1.000
    C37      C        0.49511    0.10825    0.32478    1.000
    C37      C        0.10825    0.32478    0.49511    1.000
    C37      C        0.64175    0.82478    0.75489    1.000
    C37      C        0.14175    0.42522    0.99511    1.000
    C37      C        0.60825    0.92522    0.25489    1.000
    C37      C        0.82478    0.75489    0.64175    1.000
    C37      C        0.32478    0.49511    0.10825    1.000
    C37      C        0.92522    0.25489    0.60825    1.000
    C37      C        0.42522    0.99511    0.14175    1.000
    C37      C        0.14175    0.49511    0.92522    1.000
    C37      C        0.60825    0.75489    0.42522    1.000
    C37      C        0.10825    0.99511    0.82478    1.000
    C37      C        0.64175    0.25489    0.32478    1.000
    C37      C        0.42522    0.64175    0.49511    1.000
    C37      C        0.92522    0.10825    0.75489    1.000
    C37      C        0.32478    0.60825    0.99511    1.000
    C37      C        0.82478    0.14175    0.25489    1.000
    C37      C        0.99511    0.92522    0.64175    1.000
    C37      C        0.25489    0.42522    0.10825    1.000
    C37      C        0.49511    0.82478    0.60825    1.000
    C37      C        0.75489    0.32478    0.14175    1.000
    C37      C        0.74511    0.89175    0.57478    1.000
    C37      C        0.00489    0.35825    0.07478    1.000
    C37      C        0.24511    0.85825    0.67522    1.000
    C37      C        0.50489    0.39175    0.17522    1.000
    C37      C        0.89175    0.17522    0.00489    1.000
    C37      C        0.35825    0.67522    0.74511    1.000
    C37      C        0.85825    0.07478    0.50489    1.000
    C37      C        0.39175    0.57478    0.24511    1.000
    C37      C        0.17522    0.74511    0.85825    1.000
    C37      C        0.67522    0.00489    0.39175    1.000
    C37      C        0.07478    0.24511    0.89175    1.000
    C37      C        0.57478    0.50489    0.35825    1.000
    C37      C        0.85825    0.50489    0.07478    1.000
    C37      C        0.39175    0.24511    0.57478    1.000
    C37      C        0.89175    0.00489    0.17522    1.000
    C37      C        0.35825    0.74511    0.67522    1.000
    C37      C        0.57478    0.35825    0.50489    1.000
    C37      C        0.07478    0.89175    0.24511    1.000
    C37      C        0.67522    0.39175    0.00489    1.000
    C37      C        0.17522    0.85825    0.74511    1.000
    C37      C        0.00489    0.07478    0.35825    1.000
    C37      C        0.74511    0.57478    0.89175    1.000
    C37      C        0.50489    0.17522    0.39175    1.000
    C37      C        0.24511    0.67522    0.85825    1.000
    C37      C        0.25489    0.10825    0.42522    1.000
    C37      C        0.99511    0.64175    0.92522    1.000
    C37      C        0.75489    0.14175    0.32478    1.000
    C37      C        0.49511    0.60825    0.82478    1.000
    C37      C        0.10825    0.82478    0.99511    1.000
    C37      C        0.64175    0.32478    0.25489    1.000
    C37      C        0.14175    0.92522    0.49511    1.000
    C37      C        0.60825    0.42522    0.75489    1.000
    C37      C        0.82478    0.25489    0.14175    1.000
    C37      C        0.32478    0.99511    0.60825    1.000
    C37      C        0.92522    0.75489    0.10825    1.000
    C37      C        0.42522    0.49511    0.64175    1.000
    C37      C        0.64175    0.99511    0.92522    1.000
    C37      C        0.10825    0.25489    0.42522    1.000
    C37      C        0.60825    0.49511    0.82478    1.000
    C37      C        0.14175    0.75489    0.32478    1.000
    C37      C        0.92522    0.14175    0.49511    1.000
    C37      C        0.42522    0.60825    0.75489    1.000
    C37      C        0.82478    0.10825    0.99511    1.000
    C37      C        0.32478    0.64175    0.25489    1.000
    C37      C        0.49511    0.42522    0.64175    1.000
    C37      C        0.75489    0.92522    0.10825    1.000
    C37      C        0.99511    0.32478    0.60825    1.000
    C37      C        0.25489    0.82478    0.14175    1.000
    C37      C        0.24511    0.39175    0.57478    1.000
    C37      C        0.50489    0.85825    0.07478    1.000
    C37      C        0.74511    0.35825    0.67522    1.000
    C37      C        0.00489    0.89175    0.17522    1.000
    C37      C        0.39175    0.67522    0.00489    1.000
    C37      C        0.85825    0.17522    0.74511    1.000
    C37      C        0.35825    0.57478    0.50489    1.000
    C37      C        0.89175    0.07478    0.24511    1.000
    C37      C        0.67522    0.24511    0.85825    1.000
    C37      C        0.17522    0.50489    0.39175    1.000
    C37      C        0.57478    0.74511    0.89175    1.000
    C37      C        0.07478    0.00489    0.35825    1.000
    C37      C        0.35825    0.00489    0.07478    1.000
    C37      C        0.89175    0.74511    0.57478    1.000
    C37      C        0.39175    0.50489    0.17522    1.000
    C37      C        0.85825    0.24511    0.67522    1.000
    C37      C        0.07478    0.85825    0.50489    1.000
    C37      C        0.57478    0.39175    0.24511    1.000
    C37      C        0.17522    0.89175    0.00489    1.000
    C37      C        0.67522    0.35825    0.74511    1.000
    C37      C        0.50489    0.57478    0.35825    1.000
    C37      C        0.24511    0.07478    0.89175    1.000
    C37      C        0.00489    0.67522    0.39175    1.000
    C37      C        0.74511    0.17522    0.85825    1.000
    C37      C        0.75489    0.60825    0.42522    1.000
    C37      C        0.49511    0.14175    0.92522    1.000
    C37      C        0.25489    0.64175    0.32478    1.000
    C37      C        0.99511    0.10825    0.82478    1.000
    C37      C        0.60825    0.32478    0.99511    1.000
    C37      C        0.14175    0.82478    0.25489    1.000
    C37      C        0.64175    0.42522    0.49511    1.000
    C37      C        0.10825    0.92522    0.75489    1.000
    C37      C        0.32478    0.75489    0.14175    1.000
    C37      C        0.82478    0.49511    0.60825    1.000
    C37      C        0.42522    0.25489    0.10825    1.000
    C37      C        0.92522    0.99511    0.64175    1.000
    C37      C        0.64175    0.49511    0.42522    1.000
    C37      C        0.10825    0.75489    0.92522    1.000
    C37      C        0.60825    0.99511    0.32478    1.000
    C37      C        0.14175    0.25489    0.82478    1.000
    C37      C        0.92522    0.64175    0.99511    1.000
    C37      C        0.42522    0.10825    0.25489    1.000
    C37      C        0.82478    0.60825    0.49511    1.000
    C37      C        0.32478    0.14175    0.75489    1.000
    C37      C        0.49511    0.92522    0.14175    1.000
    C37      C        0.75489    0.42522    0.60825    1.000
    C37      C        0.99511    0.82478    0.10825    1.000
    C37      C        0.25489    0.32478    0.64175    1.000
    C37      C        0.24511    0.89175    0.07478    1.000
    C37      C        0.50489    0.35825    0.57478    1.000
    C37      C        0.74511    0.85825    0.17522    1.000
    C37      C        0.00489    0.39175    0.67522    1.000
    C37      C        0.39175    0.17522    0.50489    1.000
    C37      C        0.85825    0.67522    0.24511    1.000
    C37      C        0.35825    0.07478    0.00489    1.000
    C37      C        0.89175    0.57478    0.74511    1.000
    C37      C        0.67522    0.74511    0.35825    1.000
    C37      C        0.17522    0.00489    0.89175    1.000
    C37      C        0.57478    0.24511    0.39175    1.000
    C37      C        0.07478    0.50489    0.85825    1.000
    C37      C        0.35825    0.50489    0.57478    1.000
    C37      C        0.89175    0.24511    0.07478    1.000
    C37      C        0.39175    0.00489    0.67522    1.000
    C37      C        0.85825    0.74511    0.17522    1.000
    C37      C        0.07478    0.35825    0.00489    1.000
    C37      C        0.57478    0.89175    0.74511    1.000
    C37      C        0.17522    0.39175    0.50489    1.000
    C37      C        0.67522    0.85825    0.24511    1.000
    C37      C        0.50489    0.07478    0.85825    1.000
    C37      C        0.24511    0.57478    0.39175    1.000
    C37      C        0.00489    0.17522    0.89175    1.000
    C37      C        0.74511    0.67522    0.35825    1.000
    C37      C        0.75489    0.10825    0.92522    1.000
    C37      C        0.49511    0.64175    0.42522    1.000
    C37      C        0.25489    0.14175    0.82478    1.000
    C37      C        0.99511    0.60825    0.32478    1.000
    C37      C        0.60825    0.82478    0.49511    1.000
    C37      C        0.14175    0.32478    0.75489    1.000
    C37      C        0.64175    0.92522    0.99511    1.000
    C37      C        0.10825    0.42522    0.25489    1.000
    C37      C        0.32478    0.25489    0.64175    1.000
    C37      C        0.82478    0.99511    0.10825    1.000
    C37      C        0.42522    0.75489    0.60825    1.000
    C37      C        0.92522    0.49511    0.14175    1.000
    C38      C        0.58516    0.26846    0.91968    1.000
    C38      C        0.08516    0.48154    0.33032    1.000
    C38      C        0.66484    0.76846    0.83032    1.000
    C38      C        0.41968    0.16484    0.98154    1.000
    C38      C        0.91968    0.58516    0.26846    1.000
    C38      C        0.33032    0.08516    0.48154    1.000
    C38      C        0.83032    0.66484    0.76846    1.000
    C38      C        0.98154    0.41968    0.16484    1.000
    C38      C        0.26846    0.91968    0.58516    1.000
    C38      C        0.48154    0.33032    0.08516    1.000
    C38      C        0.76846    0.83032    0.66484    1.000
    C38      C        0.73154    0.41484    0.08032    1.000
    C38      C        0.01846    0.83516    0.58032    1.000
    C38      C        0.23154    0.33516    0.16968    1.000
    C38      C        0.51846    0.91484    0.66968    1.000
    C38      C        0.91484    0.66968    0.51846    1.000
    C38      C        0.33516    0.16968    0.23154    1.000
    C38      C        0.83516    0.58032    0.01846    1.000
    C38      C        0.41484    0.08032    0.73154    1.000
    C38      C        0.16968    0.23154    0.33516    1.000
    C38      C        0.66968    0.51846    0.91484    1.000
    C38      C        0.08032    0.73154    0.41484    1.000
    C38      C        0.58032    0.01846    0.83516    1.000
    C38      C        0.83516    0.01846    0.58032    1.000
    C38      C        0.41484    0.73154    0.08032    1.000
    C38      C        0.91484    0.51846    0.66968    1.000
    C38      C        0.33516    0.23154    0.16968    1.000
    C38      C        0.58032    0.83516    0.01846    1.000
    C38      C        0.08032    0.41484    0.73154    1.000
    C38      C        0.66968    0.91484    0.51846    1.000
    C38      C        0.16968    0.33516    0.23154    1.000
    C38      C        0.01846    0.58032    0.83516    1.000
    C38      C        0.73154    0.08032    0.41484    1.000
    C38      C        0.51846    0.66968    0.91484    1.000
    C38      C        0.23154    0.16968    0.33516    1.000
    C38      C        0.26846    0.58516    0.91968    1.000
    C38      C        0.98154    0.16484    0.41968    1.000
    C38      C        0.76846    0.66484    0.83032    1.000
    C38      C        0.48154    0.08516    0.33032    1.000
    C38      C        0.08516    0.33032    0.48154    1.000
    C38      C        0.66484    0.83032    0.76846    1.000
    C38      C        0.16484    0.41968    0.98154    1.000
    C38      C        0.58516    0.91968    0.26846    1.000
    C38      C        0.83032    0.76846    0.66484    1.000
    C38      C        0.33032    0.48154    0.08516    1.000
    C38      C        0.91968    0.26846    0.58516    1.000
    C38      C        0.41968    0.98154    0.16484    1.000
    C38      C        0.16484    0.48154    0.91968    1.000
    C38      C        0.58516    0.76846    0.41968    1.000
    C38      C        0.08516    0.98154    0.83032    1.000
    C38      C        0.66484    0.26846    0.33032    1.000
    C38      C        0.41968    0.66484    0.48154    1.000
    C38      C        0.91968    0.08516    0.76846    1.000
    C38      C        0.33032    0.58516    0.98154    1.000
    C38      C        0.83032    0.16484    0.26846    1.000
    C38      C        0.98154    0.91968    0.66484    1.000
    C38      C        0.26846    0.41968    0.08516    1.000
    C38      C        0.48154    0.83032    0.58516    1.000
    C38      C        0.76846    0.33032    0.16484    1.000
    C38      C        0.73154    0.91484    0.58032    1.000
    C38      C        0.01846    0.33516    0.08032    1.000
    C38      C        0.23154    0.83516    0.66968    1.000
    C38      C        0.51846    0.41484    0.16968    1.000
    C38      C        0.91484    0.16968    0.01846    1.000
    C38      C        0.33516    0.66968    0.73154    1.000
    C38      C        0.83516    0.08032    0.51846    1.000
    C38      C        0.41484    0.58032    0.23154    1.000
    C38      C        0.16968    0.73154    0.83516    1.000
    C38      C        0.66968    0.01846    0.41484    1.000
    C38      C        0.08032    0.23154    0.91484    1.000
    C38      C        0.58032    0.51846    0.33516    1.000
    C38      C        0.83516    0.51846    0.08032    1.000
    C38      C        0.41484    0.23154    0.58032    1.000
    C38      C        0.91484    0.01846    0.16968    1.000
    C38      C        0.33516    0.73154    0.66968    1.000
    C38      C        0.58032    0.33516    0.51846    1.000
    C38      C        0.08032    0.91484    0.23154    1.000
    C38      C        0.66968    0.41484    0.01846    1.000
    C38      C        0.16968    0.83516    0.73154    1.000
    C38      C        0.01846    0.08032    0.33516    1.000
    C38      C        0.73154    0.58032    0.91484    1.000
    C38      C        0.51846    0.16968    0.41484    1.000
    C38      C        0.23154    0.66968    0.83516    1.000
    C38      C        0.26846    0.08516    0.41968    1.000
    C38      C        0.98154    0.66484    0.91968    1.000
    C38      C        0.76846    0.16484    0.33032    1.000
    C38      C        0.48154    0.58516    0.83032    1.000
    C38      C        0.08516    0.83032    0.98154    1.000
    C38      C        0.66484    0.33032    0.26846    1.000
    C38      C        0.16484    0.91968    0.48154    1.000
    C38      C        0.58516    0.41968    0.76846    1.000
    C38      C        0.83032    0.26846    0.16484    1.000
    C38      C        0.33032    0.98154    0.58516    1.000
    C38      C        0.91968    0.76846    0.08516    1.000
    C38      C        0.41968    0.48154    0.66484    1.000
    C38      C        0.66484    0.98154    0.91968    1.000
    C38      C        0.08516    0.26846    0.41968    1.000
    C38      C        0.58516    0.48154    0.83032    1.000
    C38      C        0.16484    0.76846    0.33032    1.000
    C38      C        0.91968    0.16484    0.48154    1.000
    C38      C        0.41968    0.58516    0.76846    1.000
    C38      C        0.83032    0.08516    0.98154    1.000
    C38      C        0.33032    0.66484    0.26846    1.000
    C38      C        0.48154    0.41968    0.66484    1.000
    C38      C        0.76846    0.91968    0.08516    1.000
    C38      C        0.98154    0.33032    0.58516    1.000
    C38      C        0.26846    0.83032    0.16484    1.000
    C38      C        0.23154    0.41484    0.58032    1.000
    C38      C        0.51846    0.83516    0.08032    1.000
    C38      C        0.73154    0.33516    0.66968    1.000
    C38      C        0.01846    0.91484    0.16968    1.000
    C38      C        0.41484    0.66968    0.01846    1.000
    C38      C        0.83516    0.16968    0.73154    1.000
    C38      C        0.33516    0.58032    0.51846    1.000
    C38      C        0.91484    0.08032    0.23154    1.000
    C38      C        0.66968    0.23154    0.83516    1.000
    C38      C        0.16968    0.51846    0.41484    1.000
    C38      C        0.58032    0.73154    0.91484    1.000
    C38      C        0.08032    0.01846    0.33516    1.000
    C38      C        0.33516    0.01846    0.08032    1.000
    C38      C        0.91484    0.73154    0.58032    1.000
    C38      C        0.41484    0.51846    0.16968    1.000
    C38      C        0.83516    0.23154    0.66968    1.000
    C38      C        0.08032    0.83516    0.51846    1.000
    C38      C        0.58032    0.41484    0.23154    1.000
    C38      C        0.16968    0.91484    0.01846    1.000
    C38      C        0.66968    0.33516    0.73154    1.000
    C38      C        0.51846    0.58032    0.33516    1.000
    C38      C        0.23154    0.08032    0.91484    1.000
    C38      C        0.01846    0.66968    0.41484    1.000
    C38      C        0.73154    0.16968    0.83516    1.000
    C38      C        0.76846    0.58516    0.41968    1.000
    C38      C        0.48154    0.16484    0.91968    1.000
    C38      C        0.26846    0.66484    0.33032    1.000
    C38      C        0.98154    0.08516    0.83032    1.000
    C38      C        0.58516    0.33032    0.98154    1.000
    C38      C        0.16484    0.83032    0.26846    1.000
    C38      C        0.66484    0.41968    0.48154    1.000
    C38      C        0.08516    0.91968    0.76846    1.000
    C38      C        0.33032    0.76846    0.16484    1.000
    C38      C        0.83032    0.48154    0.58516    1.000
    C38      C        0.41968    0.26846    0.08516    1.000
    C38      C        0.91968    0.98154    0.66484    1.000
    C38      C        0.66484    0.48154    0.41968    1.000
    C38      C        0.08516    0.76846    0.91968    1.000
    C38      C        0.58516    0.98154    0.33032    1.000
    C38      C        0.16484    0.26846    0.83032    1.000
    C38      C        0.91968    0.66484    0.98154    1.000
    C38      C        0.41968    0.08516    0.26846    1.000
    C38      C        0.83032    0.58516    0.48154    1.000
    C38      C        0.33032    0.16484    0.76846    1.000
    C38      C        0.48154    0.91968    0.16484    1.000
    C38      C        0.76846    0.41968    0.58516    1.000
    C38      C        0.98154    0.83032    0.08516    1.000
    C38      C        0.26846    0.33032    0.66484    1.000
    C38      C        0.23154    0.91484    0.08032    1.000
    C38      C        0.51846    0.33516    0.58032    1.000
    C38      C        0.73154    0.83516    0.16968    1.000
    C38      C        0.01846    0.41484    0.66968    1.000
    C38      C        0.41484    0.16968    0.51846    1.000
    C38      C        0.83516    0.66968    0.23154    1.000
    C38      C        0.33516    0.08032    0.01846    1.000
    C38      C        0.91484    0.58032    0.73154    1.000
    C38      C        0.66968    0.73154    0.33516    1.000
    C38      C        0.16968    0.01846    0.91484    1.000
    C38      C        0.58032    0.23154    0.41484    1.000
    C38      C        0.08032    0.51846    0.83516    1.000
    C38      C        0.33516    0.51846    0.58032    1.000
    C38      C        0.91484    0.23154    0.08032    1.000
    C38      C        0.41484    0.01846    0.66968    1.000
    C38      C        0.83516    0.73154    0.16968    1.000
    C38      C        0.08032    0.33516    0.01846    1.000
    C38      C        0.58032    0.91484    0.73154    1.000
    C38      C        0.16968    0.41484    0.51846    1.000
    C38      C        0.66968    0.83516    0.23154    1.000
    C38      C        0.51846    0.08032    0.83516    1.000
    C38      C        0.23154    0.58032    0.41484    1.000
    C38      C        0.01846    0.16968    0.91484    1.000
    C38      C        0.73154    0.66968    0.33516    1.000
    C38      C        0.76846    0.08516    0.91968    1.000
    C38      C        0.48154    0.66484    0.41968    1.000
    C38      C        0.26846    0.16484    0.83032    1.000
    C38      C        0.98154    0.58516    0.33032    1.000
    C38      C        0.58516    0.83032    0.48154    1.000
    C38      C        0.16484    0.33032    0.76846    1.000
    C38      C        0.66484    0.91968    0.98154    1.000
    C38      C        0.08516    0.41968    0.26846    1.000
    C38      C        0.33032    0.26846    0.66484    1.000
    C38      C        0.83032    0.98154    0.08516    1.000
    C38      C        0.41968    0.76846    0.58516    1.000
    C38      C        0.91968    0.48154    0.16484    1.000
    C39      C        0.59842    0.26171    0.91458    1.000
    C39      C        0.09842    0.48829    0.33542    1.000
    C39      C        0.65158    0.76171    0.83542    1.000
    C39      C        0.41458    0.15158    0.98829    1.000
    C39      C        0.91458    0.59842    0.26171    1.000
    C39      C        0.33542    0.09842    0.48829    1.000
    C39      C        0.83542    0.65158    0.76171    1.000
    C39      C        0.98829    0.41458    0.15158    1.000
    C39      C        0.26171    0.91458    0.59842    1.000
    C39      C        0.48829    0.33542    0.09842    1.000
    C39      C        0.76171    0.83542    0.65158    1.000
    C39      C        0.73829    0.40158    0.08542    1.000
    C39      C        0.01171    0.84842    0.58542    1.000
    C39      C        0.23829    0.34842    0.16458    1.000
    C39      C        0.51171    0.90158    0.66458    1.000
    C39      C        0.90158    0.66458    0.51171    1.000
    C39      C        0.34842    0.16458    0.23829    1.000
    C39      C        0.84842    0.58542    0.01171    1.000
    C39      C        0.40158    0.08542    0.73829    1.000
    C39      C        0.16458    0.23829    0.34842    1.000
    C39      C        0.66458    0.51171    0.90158    1.000
    C39      C        0.08542    0.73829    0.40158    1.000
    C39      C        0.58542    0.01171    0.84842    1.000
    C39      C        0.84842    0.01171    0.58542    1.000
    C39      C        0.40158    0.73829    0.08542    1.000
    C39      C        0.90158    0.51171    0.66458    1.000
    C39      C        0.34842    0.23829    0.16458    1.000
    C39      C        0.58542    0.84842    0.01171    1.000
    C39      C        0.08542    0.40158    0.73829    1.000
    C39      C        0.66458    0.90158    0.51171    1.000
    C39      C        0.16458    0.34842    0.23829    1.000
    C39      C        0.01171    0.58542    0.84842    1.000
    C39      C        0.73829    0.08542    0.40158    1.000
    C39      C        0.51171    0.66458    0.90158    1.000
    C39      C        0.23829    0.16458    0.34842    1.000
    C39      C        0.26171    0.59842    0.91458    1.000
    C39      C        0.98829    0.15158    0.41458    1.000
    C39      C        0.76171    0.65158    0.83542    1.000
    C39      C        0.48829    0.09842    0.33542    1.000
    C39      C        0.09842    0.33542    0.48829    1.000
    C39      C        0.65158    0.83542    0.76171    1.000
    C39      C        0.15158    0.41458    0.98829    1.000
    C39      C        0.59842    0.91458    0.26171    1.000
    C39      C        0.83542    0.76171    0.65158    1.000
    C39      C        0.33542    0.48829    0.09842    1.000
    C39      C        0.91458    0.26171    0.59842    1.000
    C39      C        0.41458    0.98829    0.15158    1.000
    C39      C        0.15158    0.48829    0.91458    1.000
    C39      C        0.59842    0.76171    0.41458    1.000
    C39      C        0.09842    0.98829    0.83542    1.000
    C39      C        0.65158    0.26171    0.33542    1.000
    C39      C        0.41458    0.65158    0.48829    1.000
    C39      C        0.91458    0.09842    0.76171    1.000
    C39      C        0.33542    0.59842    0.98829    1.000
    C39      C        0.83542    0.15158    0.26171    1.000
    C39      C        0.98829    0.91458    0.65158    1.000
    C39      C        0.26171    0.41458    0.09842    1.000
    C39      C        0.48829    0.83542    0.59842    1.000
    C39      C        0.76171    0.33542    0.15158    1.000
    C39      C        0.73829    0.90158    0.58542    1.000
    C39      C        0.01171    0.34842    0.08542    1.000
    C39      C        0.23829    0.84842    0.66458    1.000
    C39      C        0.51171    0.40158    0.16458    1.000
    C39      C        0.90158    0.16458    0.01171    1.000
    C39      C        0.34842    0.66458    0.73829    1.000
    C39      C        0.84842    0.08542    0.51171    1.000
    C39      C        0.40158    0.58542    0.23829    1.000
    C39      C        0.16458    0.73829    0.84842    1.000
    C39      C        0.66458    0.01171    0.40158    1.000
    C39      C        0.08542    0.23829    0.90158    1.000
    C39      C        0.58542    0.51171    0.34842    1.000
    C39      C        0.84842    0.51171    0.08542    1.000
    C39      C        0.40158    0.23829    0.58542    1.000
    C39      C        0.90158    0.01171    0.16458    1.000
    C39      C        0.34842    0.73829    0.66458    1.000
    C39      C        0.58542    0.34842    0.51171    1.000
    C39      C        0.08542    0.90158    0.23829    1.000
    C39      C        0.66458    0.40158    0.01171    1.000
    C39      C        0.16458    0.84842    0.73829    1.000
    C39      C        0.01171    0.08542    0.34842    1.000
    C39      C        0.73829    0.58542    0.90158    1.000
    C39      C        0.51171    0.16458    0.40158    1.000
    C39      C        0.23829    0.66458    0.84842    1.000
    C39      C        0.26171    0.09842    0.41458    1.000
    C39      C        0.98829    0.65158    0.91458    1.000
    C39      C        0.76171    0.15158    0.33542    1.000
    C39      C        0.48829    0.59842    0.83542    1.000
    C39      C        0.09842    0.83542    0.98829    1.000
    C39      C        0.65158    0.33542    0.26171    1.000
    C39      C        0.15158    0.91458    0.48829    1.000
    C39      C        0.59842    0.41458    0.76171    1.000
    C39      C        0.83542    0.26171    0.15158    1.000
    C39      C        0.33542    0.98829    0.59842    1.000
    C39      C        0.91458    0.76171    0.09842    1.000
    C39      C        0.41458    0.48829    0.65158    1.000
    C39      C        0.65158    0.98829    0.91458    1.000
    C39      C        0.09842    0.26171    0.41458    1.000
    C39      C        0.59842    0.48829    0.83542    1.000
    C39      C        0.15158    0.76171    0.33542    1.000
    C39      C        0.91458    0.15158    0.48829    1.000
    C39      C        0.41458    0.59842    0.76171    1.000
    C39      C        0.83542    0.09842    0.98829    1.000
    C39      C        0.33542    0.65158    0.26171    1.000
    C39      C        0.48829    0.41458    0.65158    1.000
    C39      C        0.76171    0.91458    0.09842    1.000
    C39      C        0.98829    0.33542    0.59842    1.000
    C39      C        0.26171    0.83542    0.15158    1.000
    C39      C        0.23829    0.40158    0.58542    1.000
    C39      C        0.51171    0.84842    0.08542    1.000
    C39      C        0.73829    0.34842    0.66458    1.000
    C39      C        0.01171    0.90158    0.16458    1.000
    C39      C        0.40158    0.66458    0.01171    1.000
    C39      C        0.84842    0.16458    0.73829    1.000
    C39      C        0.34842    0.58542    0.51171    1.000
    C39      C        0.90158    0.08542    0.23829    1.000
    C39      C        0.66458    0.23829    0.84842    1.000
    C39      C        0.16458    0.51171    0.40158    1.000
    C39      C        0.58542    0.73829    0.90158    1.000
    C39      C        0.08542    0.01171    0.34842    1.000
    C39      C        0.34842    0.01171    0.08542    1.000
    C39      C        0.90158    0.73829    0.58542    1.000
    C39      C        0.40158    0.51171    0.16458    1.000
    C39      C        0.84842    0.23829    0.66458    1.000
    C39      C        0.08542    0.84842    0.51171    1.000
    C39      C        0.58542    0.40158    0.23829    1.000
    C39      C        0.16458    0.90158    0.01171    1.000
    C39      C        0.66458    0.34842    0.73829    1.000
    C39      C        0.51171    0.58542    0.34842    1.000
    C39      C        0.23829    0.08542    0.90158    1.000
    C39      C        0.01171    0.66458    0.40158    1.000
    C39      C        0.73829    0.16458    0.84842    1.000
    C39      C        0.76171    0.59842    0.41458    1.000
    C39      C        0.48829    0.15158    0.91458    1.000
    C39      C        0.26171    0.65158    0.33542    1.000
    C39      C        0.98829    0.09842    0.83542    1.000
    C39      C        0.59842    0.33542    0.98829    1.000
    C39      C        0.15158    0.83542    0.26171    1.000
    C39      C        0.65158    0.41458    0.48829    1.000
    C39      C        0.09842    0.91458    0.76171    1.000
    C39      C        0.33542    0.76171    0.15158    1.000
    C39      C        0.83542    0.48829    0.59842    1.000
    C39      C        0.41458    0.26171    0.09842    1.000
    C39      C        0.91458    0.98829    0.65158    1.000
    C39      C        0.65158    0.48829    0.41458    1.000
    C39      C        0.09842    0.76171    0.91458    1.000
    C39      C        0.59842    0.98829    0.33542    1.000
    C39      C        0.15158    0.26171    0.83542    1.000
    C39      C        0.91458    0.65158    0.98829    1.000
    C39      C        0.41458    0.09842    0.26171    1.000
    C39      C        0.83542    0.59842    0.48829    1.000
    C39      C        0.33542    0.15158    0.76171    1.000
    C39      C        0.48829    0.91458    0.15158    1.000
    C39      C        0.76171    0.41458    0.59842    1.000
    C39      C        0.98829    0.83542    0.09842    1.000
    C39      C        0.26171    0.33542    0.65158    1.000
    C39      C        0.23829    0.90158    0.08542    1.000
    C39      C        0.51171    0.34842    0.58542    1.000
    C39      C        0.73829    0.84842    0.16458    1.000
    C39      C        0.01171    0.40158    0.66458    1.000
    C39      C        0.40158    0.16458    0.51171    1.000
    C39      C        0.84842    0.66458    0.23829    1.000
    C39      C        0.34842    0.08542    0.01171    1.000
    C39      C        0.90158    0.58542    0.73829    1.000
    C39      C        0.66458    0.73829    0.34842    1.000
    C39      C        0.16458    0.01171    0.90158    1.000
    C39      C        0.58542    0.23829    0.40158    1.000
    C39      C        0.08542    0.51171    0.84842    1.000
    C39      C        0.34842    0.51171    0.58542    1.000
    C39      C        0.90158    0.23829    0.08542    1.000
    C39      C        0.40158    0.01171    0.66458    1.000
    C39      C        0.84842    0.73829    0.16458    1.000
    C39      C        0.08542    0.34842    0.01171    1.000
    C39      C        0.58542    0.90158    0.73829    1.000
    C39      C        0.16458    0.40158    0.51171    1.000
    C39      C        0.66458    0.84842    0.23829    1.000
    C39      C        0.51171    0.08542    0.84842    1.000
    C39      C        0.23829    0.58542    0.40158    1.000
    C39      C        0.01171    0.16458    0.90158    1.000
    C39      C        0.73829    0.66458    0.34842    1.000
    C39      C        0.76171    0.09842    0.91458    1.000
    C39      C        0.48829    0.65158    0.41458    1.000
    C39      C        0.26171    0.15158    0.83542    1.000
    C39      C        0.98829    0.59842    0.33542    1.000
    C39      C        0.59842    0.83542    0.48829    1.000
    C39      C        0.15158    0.33542    0.76171    1.000
    C39      C        0.65158    0.91458    0.98829    1.000
    C39      C        0.09842    0.41458    0.26171    1.000
    C39      C        0.33542    0.26171    0.65158    1.000
    C39      C        0.83542    0.98829    0.09842    1.000
    C39      C        0.41458    0.76171    0.59842    1.000
    C39      C        0.91458    0.48829    0.15158    1.000
    Ow1      O        0.43924    0.96216    0.28784    1.000
    Ow1      O        0.93924    0.78784    0.96216    1.000
    Ow1      O        0.81076    0.46216    0.46216    1.000
    Ow1      O        0.78784    0.31076    0.28784    1.000
    Ow1      O        0.28784    0.43924    0.96216    1.000
    Ow1      O        0.96216    0.93924    0.78784    1.000
    Ow1      O        0.46216    0.81076    0.46216    1.000
    Ow1      O        0.28784    0.78784    0.31076    1.000
    Ow1      O        0.96216    0.28784    0.43924    1.000
    Ow1      O        0.78784    0.96216    0.93924    1.000
    Ow1      O        0.46216    0.46216    0.81076    1.000
    Ow1      O        0.03784    0.56076    0.71216    1.000
    Ow1      O        0.71216    0.68924    0.21216    1.000
    Ow1      O        0.53784    0.18924    0.53784    1.000
    Ow1      O        0.21216    0.06076    0.03784    1.000
    Ow1      O        0.06076    0.03784    0.21216    1.000
    Ow1      O        0.18924    0.53784    0.53784    1.000
    Ow1      O        0.68924    0.21216    0.71216    1.000
    Ow1      O        0.56076    0.71216    0.03784    1.000
    Ow1      O        0.53784    0.53784    0.18924    1.000
    Ow1      O        0.03784    0.21216    0.06076    1.000
    Ow1      O        0.71216    0.03784    0.56076    1.000
    Ow1      O        0.21216    0.71216    0.68924    1.000
    Ow1      O        0.68924    0.71216    0.21216    1.000
    Ow1      O        0.56076    0.03784    0.71216    1.000
    Ow1      O        0.06076    0.21216    0.03784    1.000
    Ow1      O        0.21216    0.68924    0.71216    1.000
    Ow1      O        0.71216    0.56076    0.03784    1.000
    Ow1      O        0.03784    0.06076    0.21216    1.000
    Ow1      O        0.71216    0.21216    0.68924    1.000
    Ow1      O        0.03784    0.71216    0.56076    1.000
    Ow1      O        0.21216    0.03784    0.06076    1.000
    Ow1      O        0.96216    0.43924    0.28784    1.000
    Ow1      O        0.28784    0.31076    0.78784    1.000
    Ow1      O        0.78784    0.93924    0.96216    1.000
    Ow1      O        0.93924    0.96216    0.78784    1.000
    Ow1      O        0.31076    0.78784    0.28784    1.000
    Ow1      O        0.43924    0.28784    0.96216    1.000
    Ow1      O        0.96216    0.78784    0.93924    1.000
    Ow1      O        0.28784    0.96216    0.43924    1.000
    Ow1      O        0.78784    0.28784    0.31076    1.000
    Ow1      O        0.43924    0.46216    0.78784    1.000
    Ow1      O        0.93924    0.28784    0.46216    1.000
    Ow1      O        0.81076    0.96216    0.96216    1.000
    Ow1      O        0.78784    0.81076    0.78784    1.000
    Ow1      O        0.28784    0.93924    0.46216    1.000
    Ow1      O        0.46216    0.31076    0.96216    1.000
    Ow1      O        0.28784    0.28784    0.81076    1.000
    Ow1      O        0.78784    0.46216    0.43924    1.000
    Ow1      O        0.46216    0.96216    0.31076    1.000
    Ow1      O        0.71216    0.18924    0.71216    1.000
    Ow1      O        0.53784    0.68924    0.03784    1.000
    Ow1      O        0.21216    0.56076    0.53784    1.000
    Ow1      O        0.06076    0.53784    0.71216    1.000
    Ow1      O        0.18924    0.03784    0.03784    1.000
    Ow1      O        0.56076    0.21216    0.53784    1.000
    Ow1      O        0.53784    0.03784    0.68924    1.000
    Ow1      O        0.71216    0.53784    0.06076    1.000
    Ow1      O        0.21216    0.21216    0.18924    1.000
    Ow1      O        0.56076    0.53784    0.21216    1.000
    Ow1      O        0.06076    0.71216    0.53784    1.000
    Ow1      O        0.21216    0.18924    0.21216    1.000
    Ow1      O        0.71216    0.06076    0.53784    1.000
    Ow1      O        0.71216    0.71216    0.18924    1.000
    Ow1      O        0.21216    0.53784    0.56076    1.000
    Ow1      O        0.28784    0.81076    0.28784    1.000
    Ow1      O        0.78784    0.43924    0.46216    1.000
    Ow1      O        0.93924    0.46216    0.28784    1.000
    Ow1      O        0.43924    0.78784    0.46216    1.000
    Ow1      O        0.28784    0.46216    0.93924    1.000
    Ow1      O        0.78784    0.78784    0.81076    1.000
    Ow1      O        0.81076    0.28784    0.28784    1.000
    Ow1      O        0.31076    0.46216    0.96216    1.000
    Ow1      O        0.46216    0.93924    0.28784    1.000
    Ow1      O        0.96216    0.81076    0.96216    1.000
    Ow1      O        0.46216    0.28784    0.93924    1.000
    Ow1      O        0.96216    0.46216    0.31076    1.000
    Ow1      O        0.53784    0.56076    0.21216    1.000
    Ow1      O        0.03784    0.18924    0.03784    1.000
    Ow1      O        0.68924    0.53784    0.03784    1.000
    Ow1      O        0.18924    0.21216    0.21216    1.000
    Ow1      O        0.03784    0.53784    0.68924    1.000
    Ow1      O        0.53784    0.21216    0.56076    1.000
    Ow1      O        0.18924    0.71216    0.71216    1.000
    Ow1      O        0.53784    0.06076    0.71216    1.000
    Ow1      O        0.53784    0.71216    0.06076    1.000
    Ow1      O        0.46216    0.43924    0.78784    1.000
    Ow1      O        0.81076    0.78784    0.78784    1.000
    Ow1      O        0.46216    0.78784    0.43924    1.000
    Ow1      O        0.31076    0.96216    0.46216    1.000
    Ow1      O        0.96216    0.31076    0.46216    1.000
    Ow1      O        0.96216    0.96216    0.81076    1.000
    Ow1      O        0.03784    0.68924    0.53784    1.000
    Ow1      O        0.68924    0.03784    0.53784    1.000
    Ow1      O        0.03784    0.03784    0.18924    1.000
    Ow2      O        0.50287    0.04042    0.24713    1.000
    Ow2      O        0.00287    0.70958    0.00287    1.000
    Ow2      O        0.74713    0.54042    0.50287    1.000
    Ow2      O        0.74713    0.24713    0.20958    1.000
    Ow2      O        0.24713    0.50287    0.04042    1.000
    Ow2      O        0.00287    0.00287    0.70958    1.000
    Ow2      O        0.50287    0.74713    0.54042    1.000
    Ow2      O        0.20958    0.74713    0.24713    1.000
    Ow2      O        0.04042    0.24713    0.50287    1.000
    Ow2      O        0.70958    0.00287    0.00287    1.000
    Ow2      O        0.54042    0.50287    0.74713    1.000
    Ow2      O        0.95958    0.49713    0.75287    1.000
    Ow2      O        0.79042    0.75287    0.25287    1.000
    Ow2      O        0.45958    0.25287    0.49713    1.000
    Ow2      O        0.29042    0.99713    0.99713    1.000
    Ow2      O        0.99713    0.99713    0.29042    1.000
    Ow2      O        0.25287    0.49713    0.45958    1.000
    Ow2      O        0.75287    0.25287    0.79042    1.000
    Ow2      O        0.49713    0.75287    0.95958    1.000
    Ow2      O        0.49713    0.45958    0.25287    1.000
    Ow2      O        0.99713    0.29042    0.99713    1.000
    Ow2      O        0.75287    0.95958    0.49713    1.000
    Ow2      O        0.25287    0.79042    0.75287    1.000
    Ow2      O        0.75287    0.79042    0.25287    1.000
    Ow2      O        0.49713    0.95958    0.75287    1.000
    Ow2      O        0.25287    0.45958    0.49713    1.000
    Ow2      O        0.25287    0.75287    0.79042    1.000
    Ow2      O        0.75287    0.49713    0.95958    1.000
    Ow2      O        0.49713    0.25287    0.45958    1.000
    Ow2      O        0.79042    0.25287    0.75287    1.000
    Ow2      O        0.95958    0.75287    0.49713    1.000
    Ow2      O        0.45958    0.49713    0.25287    1.000
    Ow2      O        0.04042    0.50287    0.24713    1.000
    Ow2      O        0.20958    0.24713    0.74713    1.000
    Ow2      O        0.54042    0.74713    0.50287    1.000
    Ow2      O        0.74713    0.50287    0.54042    1.000
    Ow2      O        0.24713    0.74713    0.20958    1.000
    Ow2      O        0.50287    0.24713    0.04042    1.000
    Ow2      O        0.50287    0.54042    0.74713    1.000
    Ow2      O        0.24713    0.04042    0.50287    1.000
    Ow2      O        0.74713    0.20958    0.24713    1.000
    Ow2      O        0.24713    0.70958    0.24713    1.000
    Ow2      O        0.00287    0.20958    0.50287    1.000
    Ow2      O        0.74713    0.04042    0.00287    1.000
    Ow2      O        0.74713    0.74713    0.70958    1.000
    Ow2      O        0.24713    0.00287    0.54042    1.000
    Ow2      O        0.00287    0.50287    0.20958    1.000
    Ow2      O        0.04042    0.74713    0.00287    1.000
    Ow2      O        0.70958    0.50287    0.50287    1.000
    Ow2      O        0.54042    0.00287    0.24713    1.000
    Ow2      O        0.95958    0.99713    0.25287    1.000
    Ow2      O        0.45958    0.75287    0.99713    1.000
    Ow2      O        0.29042    0.49713    0.49713    1.000
    Ow2      O        0.99713    0.49713    0.79042    1.000
    Ow2      O        0.25287    0.99713    0.95958    1.000
    Ow2      O        0.75287    0.75287    0.29042    1.000
    Ow2      O        0.99713    0.79042    0.49713    1.000
    Ow2      O        0.75287    0.45958    0.99713    1.000
    Ow2      O        0.25287    0.29042    0.25287    1.000
    Ow2      O        0.75287    0.29042    0.75287    1.000
    Ow2      O        0.25287    0.95958    0.99713    1.000
    Ow2      O        0.25287    0.25287    0.29042    1.000
    Ow2      O        0.75287    0.99713    0.45958    1.000
    Ow2      O        0.95958    0.25287    0.99713    1.000
    Ow2      O        0.45958    0.99713    0.75287    1.000
    Ow2      O        0.04042    0.00287    0.74713    1.000
    Ow2      O        0.54042    0.24713    0.00287    1.000
    Ow2      O        0.74713    0.00287    0.04042    1.000
    Ow2      O        0.24713    0.24713    0.70958    1.000
    Ow2      O        0.24713    0.54042    0.00287    1.000
    Ow2      O        0.74713    0.70958    0.74713    1.000
    Ow2      O        0.00287    0.04042    0.74713    1.000
    Ow2      O        0.50287    0.70958    0.50287    1.000
    Ow2      O        0.50287    0.00287    0.20958    1.000
    Ow2      O        0.00287    0.74713    0.04042    1.000
    Ow2      O        0.70958    0.74713    0.74713    1.000
    Ow2      O        0.20958    0.00287    0.50287    1.000
    Ow2      O        0.29042    0.75287    0.75287    1.000
    Ow2      O        0.79042    0.99713    0.49713    1.000
    Ow2      O        0.49713    0.99713    0.79042    1.000
    Ow2      O        0.99713    0.75287    0.45958    1.000
    Ow2      O        0.99713    0.45958    0.75287    1.000
    Ow2      O        0.49713    0.29042    0.49713    1.000
    Ow2      O        0.99713    0.95958    0.25287    1.000
    Ow2      O        0.99713    0.25287    0.95958    1.000
    Ow2      O        0.29042    0.25287    0.25287    1.000
    Ow2      O        0.70958    0.24713    0.24713    1.000
    Ow2      O        0.00287    0.24713    0.54042    1.000
    Ow2      O        0.00287    0.54042    0.24713    1.000
    Ow2      O        0.50287    0.20958    0.00287    1.000
    Ow2      O        0.50287    0.50287    0.70958    1.000
    Ow2      O        0.20958    0.50287    0.00287    1.000
    Ow2      O        0.79042    0.49713    0.99713    1.000
    Ow2      O        0.49713    0.49713    0.29042    1.000
    Ow2      O        0.49713    0.79042    0.99713    1.000
    Ow3      O        0.53021    0.99617    0.35500    1.000
    Ow3      O        0.03021    0.75383    0.89500    1.000
    Ow3      O        0.71979    0.49617    0.39500    1.000
    Ow3      O        0.85500    0.21979    0.25383    1.000
    Ow3      O        0.35500    0.53021    0.99617    1.000
    Ow3      O        0.89500    0.03021    0.75383    1.000
    Ow3      O        0.39500    0.71979    0.49617    1.000
    Ow3      O        0.25383    0.85500    0.21979    1.000
    Ow3      O        0.99617    0.35500    0.53021    1.000
    Ow3      O        0.75383    0.89500    0.03021    1.000
    Ow3      O        0.49617    0.39500    0.71979    1.000
    Ow3      O        0.00383    0.46979    0.64500    1.000
    Ow3      O        0.74617    0.78021    0.14500    1.000
    Ow3      O        0.50383    0.28021    0.60500    1.000
    Ow3      O        0.24617    0.96979    0.10500    1.000
    Ow3      O        0.96979    0.10500    0.24617    1.000
    Ow3      O        0.28021    0.60500    0.50383    1.000
    Ow3      O        0.78021    0.14500    0.74617    1.000
    Ow3      O        0.46979    0.64500    0.00383    1.000
    Ow3      O        0.60500    0.50383    0.28021    1.000
    Ow3      O        0.10500    0.24617    0.96979    1.000
    Ow3      O        0.64500    0.00383    0.46979    1.000
    Ow3      O        0.14500    0.74617    0.78021    1.000
    Ow3      O        0.78021    0.74617    0.14500    1.000
    Ow3      O        0.46979    0.00383    0.64500    1.000
    Ow3      O        0.96979    0.24617    0.10500    1.000
    Ow3      O        0.28021    0.50383    0.60500    1.000
    Ow3      O        0.14500    0.78021    0.74617    1.000
    Ow3      O        0.64500    0.46979    0.00383    1.000
    Ow3      O        0.10500    0.96979    0.24617    1.000
    Ow3      O        0.60500    0.28021    0.50383    1.000
    Ow3      O        0.74617    0.14500    0.78021    1.000
    Ow3      O        0.00383    0.64500    0.46979    1.000
    Ow3      O        0.24617    0.10500    0.96979    1.000
    Ow3      O        0.50383    0.60500    0.28021    1.000
    Ow3      O        0.99617    0.53021    0.35500    1.000
    Ow3      O        0.25383    0.21979    0.85500    1.000
    Ow3      O        0.49617    0.71979    0.39500    1.000
    Ow3      O        0.75383    0.03021    0.89500    1.000
    Ow3      O        0.03021    0.89500    0.75383    1.000
    Ow3      O        0.71979    0.39500    0.49617    1.000
    Ow3      O        0.21979    0.85500    0.25383    1.000
    Ow3      O        0.53021    0.35500    0.99617    1.000
    Ow3      O        0.39500    0.49617    0.71979    1.000
    Ow3      O        0.89500    0.75383    0.03021    1.000
    Ow3      O        0.35500    0.99617    0.53021    1.000
    Ow3      O        0.85500    0.25383    0.21979    1.000
    Ow3      O        0.21979    0.75383    0.35500    1.000
    Ow3      O        0.53021    0.49617    0.85500    1.000
    Ow3      O        0.03021    0.25383    0.39500    1.000
    Ow3      O        0.71979    0.99617    0.89500    1.000
    Ow3      O        0.85500    0.71979    0.75383    1.000
    Ow3      O        0.35500    0.03021    0.49617    1.000
    Ow3      O        0.89500    0.53021    0.25383    1.000
    Ow3      O        0.39500    0.21979    0.99617    1.000
    Ow3      O        0.25383    0.35500    0.71979    1.000
    Ow3      O        0.99617    0.85500    0.03021    1.000
    Ow3      O        0.75383    0.39500    0.53021    1.000
    Ow3      O        0.49617    0.89500    0.21979    1.000
    Ow3      O        0.00383    0.96979    0.14500    1.000
    Ow3      O        0.74617    0.28021    0.64500    1.000
    Ow3      O        0.50383    0.78021    0.10500    1.000
    Ow3      O        0.24617    0.46979    0.60500    1.000
    Ow3      O        0.96979    0.60500    0.74617    1.000
    Ow3      O        0.28021    0.10500    0.00383    1.000
    Ow3      O        0.78021    0.64500    0.24617    1.000
    Ow3      O        0.46979    0.14500    0.50383    1.000
    Ow3      O        0.60500    0.00383    0.78021    1.000
    Ow3      O        0.10500    0.74617    0.46979    1.000
    Ow3      O        0.64500    0.50383    0.96979    1.000
    Ow3      O        0.14500    0.24617    0.28021    1.000
    Ow3      O        0.78021    0.24617    0.64500    1.000
    Ow3      O        0.46979    0.50383    0.14500    1.000
    Ow3      O        0.96979    0.74617    0.60500    1.000
    Ow3      O        0.28021    0.00383    0.10500    1.000
    Ow3      O        0.14500    0.28021    0.24617    1.000
    Ow3      O        0.64500    0.96979    0.50383    1.000
    Ow3      O        0.10500    0.46979    0.74617    1.000
    Ow3      O        0.60500    0.78021    0.00383    1.000
    Ow3      O        0.74617    0.64500    0.28021    1.000
    Ow3      O        0.00383    0.14500    0.96979    1.000
    Ow3      O        0.24617    0.60500    0.46979    1.000
    Ow3      O        0.50383    0.10500    0.78021    1.000
    Ow3      O        0.99617    0.03021    0.85500    1.000
    Ow3      O        0.25383    0.71979    0.35500    1.000
    Ow3      O        0.49617    0.21979    0.89500    1.000
    Ow3      O        0.75383    0.53021    0.39500    1.000
    Ow3      O        0.03021    0.39500    0.25383    1.000
    Ow3      O        0.71979    0.89500    0.99617    1.000
    Ow3      O        0.21979    0.35500    0.75383    1.000
    Ow3      O        0.53021    0.85500    0.49617    1.000
    Ow3      O        0.39500    0.99617    0.21979    1.000
    Ow3      O        0.89500    0.25383    0.53021    1.000
    Ow3      O        0.35500    0.49617    0.03021    1.000
    Ow3      O        0.85500    0.75383    0.71979    1.000
    Ow3      O        0.71979    0.25383    0.35500    1.000
    Ow3      O        0.03021    0.99617    0.85500    1.000
    Ow3      O        0.53021    0.75383    0.39500    1.000
    Ow3      O        0.21979    0.49617    0.89500    1.000
    Ow3      O        0.35500    0.21979    0.75383    1.000
    Ow3      O        0.85500    0.53021    0.49617    1.000
    Ow3      O        0.39500    0.03021    0.25383    1.000
    Ow3      O        0.89500    0.71979    0.99617    1.000
    Ow3      O        0.75383    0.85500    0.71979    1.000
    Ow3      O        0.49617    0.35500    0.03021    1.000
    Ow3      O        0.25383    0.89500    0.53021    1.000
    Ow3      O        0.99617    0.39500    0.21979    1.000
    Ow3      O        0.50383    0.46979    0.14500    1.000
    Ow3      O        0.24617    0.78021    0.64500    1.000
    Ow3      O        0.00383    0.28021    0.10500    1.000
    Ow3      O        0.74617    0.96979    0.60500    1.000
    Ow3      O        0.46979    0.10500    0.74617    1.000
    Ow3      O        0.78021    0.60500    0.00383    1.000
    Ow3      O        0.28021    0.14500    0.24617    1.000
    Ow3      O        0.96979    0.64500    0.50383    1.000
    Ow3      O        0.10500    0.50383    0.78021    1.000
    Ow3      O        0.60500    0.24617    0.46979    1.000
    Ow3      O        0.14500    0.00383    0.96979    1.000
    Ow3      O        0.64500    0.74617    0.28021    1.000
    Ow3      O        0.28021    0.74617    0.64500    1.000
    Ow3      O        0.96979    0.00383    0.14500    1.000
    Ow3      O        0.46979    0.24617    0.60500    1.000
    Ow3      O        0.78021    0.50383    0.10500    1.000
    Ow3      O        0.64500    0.78021    0.24617    1.000
    Ow3      O        0.14500    0.46979    0.50383    1.000
    Ow3      O        0.60500    0.96979    0.74617    1.000
    Ow3      O        0.10500    0.28021    0.00383    1.000
    Ow3      O        0.24617    0.14500    0.28021    1.000
    Ow3      O        0.50383    0.64500    0.96979    1.000
    Ow3      O        0.74617    0.10500    0.46979    1.000
    Ow3      O        0.00383    0.60500    0.78021    1.000
    Ow3      O        0.49617    0.53021    0.85500    1.000
    Ow3      O        0.75383    0.21979    0.35500    1.000
    Ow3      O        0.99617    0.71979    0.89500    1.000
    Ow3      O        0.25383    0.03021    0.39500    1.000
    Ow3      O        0.53021    0.89500    0.25383    1.000
    Ow3      O        0.21979    0.39500    0.99617    1.000
    Ow3      O        0.71979    0.85500    0.75383    1.000
    Ow3      O        0.03021    0.35500    0.49617    1.000
    Ow3      O        0.89500    0.49617    0.21979    1.000
    Ow3      O        0.39500    0.75383    0.53021    1.000
    Ow3      O        0.85500    0.99617    0.03021    1.000
    Ow3      O        0.35500    0.25383    0.71979    1.000
    Ow3      O        0.71979    0.75383    0.85500    1.000
    Ow3      O        0.03021    0.49617    0.35500    1.000
    Ow3      O        0.53021    0.25383    0.89500    1.000
    Ow3      O        0.21979    0.99617    0.39500    1.000
    Ow3      O        0.35500    0.71979    0.25383    1.000
    Ow3      O        0.85500    0.03021    0.99617    1.000
    Ow3      O        0.39500    0.53021    0.75383    1.000
    Ow3      O        0.89500    0.21979    0.49617    1.000
    Ow3      O        0.75383    0.35500    0.21979    1.000
    Ow3      O        0.49617    0.85500    0.53021    1.000
    Ow3      O        0.25383    0.39500    0.03021    1.000
    Ow3      O        0.99617    0.89500    0.71979    1.000
    Ow3      O        0.50383    0.96979    0.64500    1.000
    Ow3      O        0.24617    0.28021    0.14500    1.000
    Ow3      O        0.00383    0.78021    0.60500    1.000
    Ow3      O        0.74617    0.46979    0.10500    1.000
    Ow3      O        0.46979    0.60500    0.24617    1.000
    Ow3      O        0.78021    0.10500    0.50383    1.000
    Ow3      O        0.28021    0.64500    0.74617    1.000
    Ow3      O        0.96979    0.14500    0.00383    1.000
    Ow3      O        0.10500    0.00383    0.28021    1.000
    Ow3      O        0.60500    0.74617    0.96979    1.000
    Ow3      O        0.14500    0.50383    0.46979    1.000
    Ow3      O        0.64500    0.24617    0.78021    1.000
    Ow3      O        0.28021    0.24617    0.14500    1.000
    Ow3      O        0.96979    0.50383    0.64500    1.000
    Ow3      O        0.46979    0.74617    0.10500    1.000
    Ow3      O        0.78021    0.00383    0.60500    1.000
    Ow3      O        0.64500    0.28021    0.74617    1.000
    Ow3      O        0.14500    0.96979    0.00383    1.000
    Ow3      O        0.60500    0.46979    0.24617    1.000
    Ow3      O        0.10500    0.78021    0.50383    1.000
    Ow3      O        0.24617    0.64500    0.78021    1.000
    Ow3      O        0.50383    0.14500    0.46979    1.000
    Ow3      O        0.74617    0.60500    0.96979    1.000
    Ow3      O        0.00383    0.10500    0.28021    1.000
    Ow3      O        0.49617    0.03021    0.35500    1.000
    Ow3      O        0.75383    0.71979    0.85500    1.000
    Ow3      O        0.99617    0.21979    0.39500    1.000
    Ow3      O        0.25383    0.53021    0.89500    1.000
    Ow3      O        0.53021    0.39500    0.75383    1.000
    Ow3      O        0.21979    0.89500    0.49617    1.000
    Ow3      O        0.71979    0.35500    0.25383    1.000
    Ow3      O        0.03021    0.85500    0.99617    1.000
    Ow3      O        0.89500    0.99617    0.71979    1.000
    Ow3      O        0.39500    0.25383    0.03021    1.000
    Ow3      O        0.85500    0.49617    0.53021    1.000
    Ow3      O        0.35500    0.75383    0.21979    1.000
    Ow4      O        0.57999    0.29716    0.95284    1.000
    Ow4      O        0.07999    0.45284    0.29716    1.000
    Ow4      O        0.67001    0.79716    0.79716    1.000
    Ow4      O        0.45284    0.17001    0.95284    1.000
    Ow4      O        0.95284    0.57999    0.29716    1.000
    Ow4      O        0.29716    0.07999    0.45284    1.000
    Ow4      O        0.79716    0.67001    0.79716    1.000
    Ow4      O        0.95284    0.45284    0.17001    1.000
    Ow4      O        0.29716    0.95284    0.57999    1.000
    Ow4      O        0.45284    0.29716    0.07999    1.000
    Ow4      O        0.79716    0.79716    0.67001    1.000
    Ow4      O        0.70284    0.42001    0.04716    1.000
    Ow4      O        0.04716    0.82999    0.54716    1.000
    Ow4      O        0.20284    0.32999    0.20284    1.000
    Ow4      O        0.54716    0.92001    0.70284    1.000
    Ow4      O        0.92001    0.70284    0.54716    1.000
    Ow4      O        0.32999    0.20284    0.20284    1.000
    Ow4      O        0.82999    0.54716    0.04716    1.000
    Ow4      O        0.42001    0.04716    0.70284    1.000
    Ow4      O        0.20284    0.20284    0.32999    1.000
    Ow4      O        0.70284    0.54716    0.92001    1.000
    Ow4      O        0.04716    0.70284    0.42001    1.000
    Ow4      O        0.54716    0.04716    0.82999    1.000
    Ow4      O        0.82999    0.04716    0.54716    1.000
    Ow4      O        0.42001    0.70284    0.04716    1.000
    Ow4      O        0.92001    0.54716    0.70284    1.000
    Ow4      O        0.54716    0.82999    0.04716    1.000
    Ow4      O        0.04716    0.42001    0.70284    1.000
    Ow4      O        0.70284    0.92001    0.54716    1.000
    Ow4      O        0.04716    0.54716    0.82999    1.000
    Ow4      O        0.70284    0.04716    0.42001    1.000
    Ow4      O        0.54716    0.70284    0.92001    1.000
    Ow4      O        0.29716    0.57999    0.95284    1.000
    Ow4      O        0.95284    0.17001    0.45284    1.000
    Ow4      O        0.45284    0.07999    0.29716    1.000
    Ow4      O        0.07999    0.29716    0.45284    1.000
    Ow4      O        0.17001    0.45284    0.95284    1.000
    Ow4      O        0.57999    0.95284    0.29716    1.000
    Ow4      O        0.29716    0.45284    0.07999    1.000
    Ow4      O        0.95284    0.29716    0.57999    1.000
    Ow4      O        0.45284    0.95284    0.17001    1.000
    Ow4      O        0.57999    0.79716    0.45284    1.000
    Ow4      O        0.07999    0.95284    0.79716    1.000
    Ow4      O        0.67001    0.29716    0.29716    1.000
    Ow4      O        0.45284    0.67001    0.45284    1.000
    Ow4      O        0.95284    0.07999    0.79716    1.000
    Ow4      O        0.79716    0.17001    0.29716    1.000
    Ow4      O        0.95284    0.95284    0.67001    1.000
    Ow4      O        0.45284    0.79716    0.57999    1.000
    Ow4      O        0.79716    0.29716    0.17001    1.000
    Ow4      O        0.04716    0.32999    0.04716    1.000
    Ow4      O        0.20284    0.82999    0.70284    1.000
    Ow4      O        0.54716    0.42001    0.20284    1.000
    Ow4      O        0.92001    0.20284    0.04716    1.000
    Ow4      O        0.32999    0.70284    0.70284    1.000
    Ow4      O        0.42001    0.54716    0.20284    1.000
    Ow4      O        0.20284    0.70284    0.82999    1.000
    Ow4      O        0.04716    0.20284    0.92001    1.000
    Ow4      O        0.54716    0.54716    0.32999    1.000
    Ow4      O        0.42001    0.20284    0.54716    1.000
    Ow4      O        0.92001    0.04716    0.20284    1.000
    Ow4      O        0.54716    0.32999    0.54716    1.000
    Ow4      O        0.04716    0.92001    0.20284    1.000
    Ow4      O        0.04716    0.04716    0.32999    1.000
    Ow4      O        0.54716    0.20284    0.42001    1.000
    Ow4      O        0.95284    0.67001    0.95284    1.000
    Ow4      O        0.45284    0.57999    0.79716    1.000
    Ow4      O        0.07999    0.79716    0.95284    1.000
    Ow4      O        0.57999    0.45284    0.79716    1.000
    Ow4      O        0.95284    0.79716    0.07999    1.000
    Ow4      O        0.45284    0.45284    0.67001    1.000
    Ow4      O        0.67001    0.95284    0.95284    1.000
    Ow4      O        0.17001    0.79716    0.29716    1.000
    Ow4      O        0.79716    0.07999    0.95284    1.000
    Ow4      O        0.29716    0.67001    0.29716    1.000
    Ow4      O        0.79716    0.95284    0.07999    1.000
    Ow4      O        0.29716    0.79716    0.17001    1.000
    Ow4      O        0.20284    0.42001    0.54716    1.000
    Ow4      O        0.70284    0.32999    0.70284    1.000
    Ow4      O        0.82999    0.20284    0.70284    1.000
    Ow4      O        0.32999    0.54716    0.54716    1.000
    Ow4      O        0.70284    0.20284    0.82999    1.000
    Ow4      O        0.20284    0.54716    0.42001    1.000
    Ow4      O        0.32999    0.04716    0.04716    1.000
    Ow4      O        0.20284    0.92001    0.04716    1.000
    Ow4      O        0.20284    0.04716    0.92001    1.000
    Ow4      O        0.79716    0.57999    0.45284    1.000
    Ow4      O        0.67001    0.45284    0.45284    1.000
    Ow4      O        0.79716    0.45284    0.57999    1.000
    Ow4      O        0.17001    0.29716    0.79716    1.000
    Ow4      O        0.29716    0.17001    0.79716    1.000
    Ow4      O        0.29716    0.29716    0.67001    1.000
    Ow4      O        0.70284    0.82999    0.20284    1.000
    Ow4      O        0.82999    0.70284    0.20284    1.000
    Ow4      O        0.70284    0.70284    0.32999    1.000
    Ow5      O        0.61970    0.34584    0.90416    1.000
    Ow5      O        0.11970    0.40416    0.34584    1.000
    Ow5      O        0.63030    0.84584    0.84584    1.000
    Ow5      O        0.40416    0.13030    0.90416    1.000
    Ow5      O        0.90416    0.61970    0.34584    1.000
    Ow5      O        0.34584    0.11970    0.40416    1.000
    Ow5      O        0.84584    0.63030    0.84584    1.000
    Ow5      O        0.90416    0.40416    0.13030    1.000
    Ow5      O        0.34584    0.90416    0.61970    1.000
    Ow5      O        0.40416    0.34584    0.11970    1.000
    Ow5      O        0.84584    0.84584    0.63030    1.000
    Ow5      O        0.65416    0.38030    0.09584    1.000
    Ow5      O        0.09584    0.86970    0.59584    1.000
    Ow5      O        0.15416    0.36970    0.15416    1.000
    Ow5      O        0.59584    0.88030    0.65416    1.000
    Ow5      O        0.88030    0.65416    0.59584    1.000
    Ow5      O        0.36970    0.15416    0.15416    1.000
    Ow5      O        0.86970    0.59584    0.09584    1.000
    Ow5      O        0.38030    0.09584    0.65416    1.000
    Ow5      O        0.15416    0.15416    0.36970    1.000
    Ow5      O        0.65416    0.59584    0.88030    1.000
    Ow5      O        0.09584    0.65416    0.38030    1.000
    Ow5      O        0.59584    0.09584    0.86970    1.000
    Ow5      O        0.86970    0.09584    0.59584    1.000
    Ow5      O        0.38030    0.65416    0.09584    1.000
    Ow5      O        0.88030    0.59584    0.65416    1.000
    Ow5      O        0.59584    0.86970    0.09584    1.000
    Ow5      O        0.09584    0.38030    0.65416    1.000
    Ow5      O        0.65416    0.88030    0.59584    1.000
    Ow5      O        0.09584    0.59584    0.86970    1.000
    Ow5      O        0.65416    0.09584    0.38030    1.000
    Ow5      O        0.59584    0.65416    0.88030    1.000
    Ow5      O        0.34584    0.61970    0.90416    1.000
    Ow5      O        0.90416    0.13030    0.40416    1.000
    Ow5      O        0.40416    0.11970    0.34584    1.000
    Ow5      O        0.11970    0.34584    0.40416    1.000
    Ow5      O        0.13030    0.40416    0.90416    1.000
    Ow5      O        0.61970    0.90416    0.34584    1.000
    Ow5      O        0.34584    0.40416    0.11970    1.000
    Ow5      O        0.90416    0.34584    0.61970    1.000
    Ow5      O        0.40416    0.90416    0.13030    1.000
    Ow5      O        0.61970    0.84584    0.40416    1.000
    Ow5      O        0.11970    0.90416    0.84584    1.000
    Ow5      O        0.63030    0.34584    0.34584    1.000
    Ow5      O        0.40416    0.63030    0.40416    1.000
    Ow5      O        0.90416    0.11970    0.84584    1.000
    Ow5      O        0.84584    0.13030    0.34584    1.000
    Ow5      O        0.90416    0.90416    0.63030    1.000
    Ow5      O        0.40416    0.84584    0.61970    1.000
    Ow5      O        0.84584    0.34584    0.13030    1.000
    Ow5      O        0.09584    0.36970    0.09584    1.000
    Ow5      O        0.15416    0.86970    0.65416    1.000
    Ow5      O        0.59584    0.38030    0.15416    1.000
    Ow5      O        0.88030    0.15416    0.09584    1.000
    Ow5      O        0.36970    0.65416    0.65416    1.000
    Ow5      O        0.38030    0.59584    0.15416    1.000
    Ow5      O        0.15416    0.65416    0.86970    1.000
    Ow5      O        0.09584    0.15416    0.88030    1.000
    Ow5      O        0.59584    0.59584    0.36970    1.000
    Ow5      O        0.38030    0.15416    0.59584    1.000
    Ow5      O        0.88030    0.09584    0.15416    1.000
    Ow5      O        0.59584    0.36970    0.59584    1.000
    Ow5      O        0.09584    0.88030    0.15416    1.000
    Ow5      O        0.09584    0.09584    0.36970    1.000
    Ow5      O        0.59584    0.15416    0.38030    1.000
    Ow5      O        0.90416    0.63030    0.90416    1.000
    Ow5      O        0.40416    0.61970    0.84584    1.000
    Ow5      O        0.11970    0.84584    0.90416    1.000
    Ow5      O        0.61970    0.40416    0.84584    1.000
    Ow5      O        0.90416    0.84584    0.11970    1.000
    Ow5      O        0.40416    0.40416    0.63030    1.000
    Ow5      O        0.63030    0.90416    0.90416    1.000
    Ow5      O        0.13030    0.84584    0.34584    1.000
    Ow5      O        0.84584    0.11970    0.90416    1.000
    Ow5      O        0.34584    0.63030    0.34584    1.000
    Ow5      O        0.84584    0.90416    0.11970    1.000
    Ow5      O        0.34584    0.84584    0.13030    1.000
    Ow5      O        0.15416    0.38030    0.59584    1.000
    Ow5      O        0.65416    0.36970    0.65416    1.000
    Ow5      O        0.86970    0.15416    0.65416    1.000
    Ow5      O        0.36970    0.59584    0.59584    1.000
    Ow5      O        0.65416    0.15416    0.86970    1.000
    Ow5      O        0.15416    0.59584    0.38030    1.000
    Ow5      O        0.36970    0.09584    0.09584    1.000
    Ow5      O        0.15416    0.88030    0.09584    1.000
    Ow5      O        0.15416    0.09584    0.88030    1.000
    Ow5      O        0.84584    0.61970    0.40416    1.000
    Ow5      O        0.63030    0.40416    0.40416    1.000
    Ow5      O        0.84584    0.40416    0.61970    1.000
    Ow5      O        0.13030    0.34584    0.84584    1.000
    Ow5      O        0.34584    0.13030    0.84584    1.000
    Ow5      O        0.34584    0.34584    0.63030    1.000
    Ow5      O        0.65416    0.86970    0.15416    1.000
    Ow5      O        0.86970    0.65416    0.15416    1.000
    Ow5      O        0.65416    0.65416    0.36970    1.000
    Ow6      O        0.72681    0.47614    0.27386    1.000
    Ow6      O        0.22681    0.27386    0.97614    1.000
    Ow6      O        0.52319    0.97614    0.47614    1.000
    Ow6      O        0.77386    0.02319    0.77386    1.000
    Ow6      O        0.27386    0.72681    0.47614    1.000
    Ow6      O        0.97614    0.22681    0.27386    1.000
    Ow6      O        0.47614    0.52319    0.97614    1.000
    Ow6      O        0.77386    0.77386    0.02319    1.000
    Ow6      O        0.47614    0.27386    0.72681    1.000
    Ow6      O        0.27386    0.97614    0.22681    1.000
    Ow6      O        0.97614    0.47614    0.52319    1.000
    Ow6      O        0.52386    0.27319    0.72614    1.000
    Ow6      O        0.22614    0.97681    0.22614    1.000
    Ow6      O        0.02386    0.47681    0.52386    1.000
    Ow6      O        0.72614    0.77319    0.02386    1.000
    Ow6      O        0.77319    0.02386    0.72614    1.000
    Ow6      O        0.47681    0.52386    0.02386    1.000
    Ow6      O        0.97681    0.22614    0.22614    1.000
    Ow6      O        0.27319    0.72614    0.52386    1.000
    Ow6      O        0.52386    0.02386    0.47681    1.000
    Ow6      O        0.02386    0.72614    0.77319    1.000
    Ow6      O        0.72614    0.52386    0.27319    1.000
    Ow6      O        0.22614    0.22614    0.97681    1.000
    Ow6      O        0.27319    0.52386    0.72614    1.000
    Ow6      O        0.77319    0.72614    0.02386    1.000
    Ow6      O        0.47681    0.02386    0.52386    1.000
    Ow6      O        0.72614    0.27319    0.52386    1.000
    Ow6      O        0.02386    0.77319    0.72614    1.000
    Ow6      O        0.52386    0.47681    0.02386    1.000
    Ow6      O        0.52386    0.72614    0.27319    1.000
    Ow6      O        0.72614    0.02386    0.77319    1.000
    Ow6      O        0.02386    0.52386    0.47681    1.000
    Ow6      O        0.47614    0.72681    0.27386    1.000
    Ow6      O        0.97614    0.52319    0.47614    1.000
    Ow6      O        0.27386    0.22681    0.97614    1.000
    Ow6      O        0.22681    0.97614    0.27386    1.000
    Ow6      O        0.52319    0.47614    0.97614    1.000
    Ow6      O        0.72681    0.27386    0.47614    1.000
    Ow6      O        0.47614    0.97614    0.52319    1.000
    Ow6      O        0.97614    0.27386    0.22681    1.000
    Ow6      O        0.27386    0.47614    0.72681    1.000
    Ow6      O        0.02319    0.27386    0.27386    1.000
    Ow6      O        0.72681    0.97614    0.77386    1.000
    Ow6      O        0.22681    0.77386    0.47614    1.000
    Ow6      O        0.77386    0.52319    0.27386    1.000
    Ow6      O        0.97614    0.72681    0.77386    1.000
    Ow6      O        0.47614    0.02319    0.47614    1.000
    Ow6      O        0.77386    0.27386    0.52319    1.000
    Ow6      O        0.47614    0.77386    0.22681    1.000
    Ow6      O        0.97614    0.97614    0.02319    1.000
    Ow6      O        0.52386    0.77319    0.22614    1.000
    Ow6      O        0.22614    0.47681    0.72614    1.000
    Ow6      O        0.02386    0.97681    0.02386    1.000
    Ow6      O        0.77319    0.52386    0.22614    1.000
    Ow6      O        0.97681    0.72614    0.72614    1.000
    Ow6      O        0.27319    0.22614    0.02386    1.000
    Ow6      O        0.52386    0.52386    0.97681    1.000
    Ow6      O        0.02386    0.22614    0.27319    1.000
    Ow6      O        0.22614    0.72614    0.47681    1.000
    Ow6      O        0.27319    0.02386    0.22614    1.000
    Ow6      O        0.77319    0.22614    0.52386    1.000
    Ow6      O        0.02386    0.27319    0.22614    1.000
    Ow6      O        0.52386    0.97681    0.52386    1.000
    Ow6      O        0.52386    0.22614    0.77319    1.000
    Ow6      O        0.02386    0.02386    0.97681    1.000
    Ow6      O        0.47614    0.22681    0.77386    1.000
    Ow6      O        0.97614    0.02319    0.97614    1.000
    Ow6      O        0.22681    0.47614    0.77386    1.000
    Ow6      O        0.72681    0.77386    0.97614    1.000
    Ow6      O        0.47614    0.47614    0.02319    1.000
    Ow6      O        0.97614    0.77386    0.72681    1.000
    Ow6      O        0.52319    0.77386    0.27386    1.000
    Ow6      O        0.02319    0.97614    0.97614    1.000
    Ow6      O        0.27386    0.02319    0.27386    1.000
    Ow6      O        0.77386    0.72681    0.97614    1.000
    Ow6      O        0.27386    0.77386    0.52319    1.000
    Ow6      O        0.77386    0.97614    0.72681    1.000
    Ow6      O        0.72614    0.97681    0.72614    1.000
    Ow6      O        0.22614    0.77319    0.52386    1.000
    Ow6      O        0.97681    0.52386    0.52386    1.000
    Ow6      O        0.47681    0.22614    0.72614    1.000
    Ow6      O        0.22614    0.52386    0.77319    1.000
    Ow6      O        0.72614    0.22614    0.47681    1.000
    Ow6      O        0.97681    0.02386    0.02386    1.000
    Ow6      O        0.22614    0.27319    0.02386    1.000
    Ow6      O        0.22614    0.02386    0.27319    1.000
    Ow6      O        0.77386    0.22681    0.47614    1.000
    Ow6      O        0.02319    0.47614    0.47614    1.000
    Ow6      O        0.77386    0.47614    0.22681    1.000
    Ow6      O        0.52319    0.27386    0.77386    1.000
    Ow6      O        0.27386    0.52319    0.77386    1.000
    Ow6      O        0.27386    0.27386    0.02319    1.000
    Ow6      O        0.72614    0.47681    0.22614    1.000
    Ow6      O        0.47681    0.72614    0.22614    1.000
    Ow6      O        0.72614    0.72614    0.97681    1.000
    Ow7      O        0.56225    0.90075    0.40075    1.000
    Ow7      O        0.06225    0.84925    0.84925    1.000
    Ow7      O        0.68775    0.40075    0.34925    1.000
    Ow7      O        0.90075    0.18775    0.34925    1.000
    Ow7      O        0.40075    0.56225    0.90075    1.000
    Ow7      O        0.84925    0.06225    0.84925    1.000
    Ow7      O        0.34925    0.68775    0.40075    1.000
    Ow7      O        0.34925    0.90075    0.18775    1.000
    Ow7      O        0.90075    0.40075    0.56225    1.000
    Ow7      O        0.84925    0.84925    0.06225    1.000
    Ow7      O        0.40075    0.34925    0.68775    1.000
    Ow7      O        0.09925    0.43775    0.59925    1.000
    Ow7      O        0.65075    0.81225    0.09925    1.000
    Ow7      O        0.59925    0.31225    0.65075    1.000
    Ow7      O        0.15075    0.93775    0.15075    1.000
    Ow7      O        0.93775    0.15075    0.15075    1.000
    Ow7      O        0.31225    0.65075    0.59925    1.000
    Ow7      O        0.81225    0.09925    0.65075    1.000
    Ow7      O        0.43775    0.59925    0.09925    1.000
    Ow7      O        0.65075    0.59925    0.31225    1.000
    Ow7      O        0.15075    0.15075    0.93775    1.000
    Ow7      O        0.59925    0.09925    0.43775    1.000
    Ow7      O        0.09925    0.65075    0.81225    1.000
    Ow7      O        0.81225    0.65075    0.09925    1.000
    Ow7      O        0.43775    0.09925    0.59925    1.000
    Ow7      O        0.31225    0.59925    0.65075    1.000
    Ow7      O        0.09925    0.81225    0.65075    1.000
    Ow7      O        0.59925    0.43775    0.09925    1.000
    Ow7      O        0.65075    0.31225    0.59925    1.000
    Ow7      O        0.65075    0.09925    0.81225    1.000
    Ow7      O        0.09925    0.59925    0.43775    1.000
    Ow7      O        0.59925    0.65075    0.31225    1.000
    Ow7      O        0.90075    0.56225    0.40075    1.000
    Ow7      O        0.34925    0.18775    0.90075    1.000
    Ow7      O        0.40075    0.68775    0.34925    1.000
    Ow7      O        0.68775    0.34925    0.40075    1.000
    Ow7      O        0.18775    0.90075    0.34925    1.000
    Ow7      O        0.56225    0.40075    0.90075    1.000
    Ow7      O        0.34925    0.40075    0.68775    1.000
    Ow7      O        0.40075    0.90075    0.56225    1.000
    Ow7      O        0.90075    0.34925    0.18775    1.000
    Ow7      O        0.18775    0.84925    0.40075    1.000
    Ow7      O        0.06225    0.34925    0.34925    1.000
    Ow7      O        0.68775    0.90075    0.84925    1.000
    Ow7      O        0.90075    0.68775    0.84925    1.000
    Ow7      O        0.40075    0.06225    0.40075    1.000
    Ow7      O        0.84925    0.56225    0.34925    1.000
    Ow7      O        0.90075    0.90075    0.06225    1.000
    Ow7      O        0.84925    0.34925    0.56225    1.000
    Ow7      O        0.40075    0.84925    0.18775    1.000
    Ow7      O        0.09925    0.93775    0.09925    1.000
    Ow7      O        0.59925    0.81225    0.15075    1.000
    Ow7      O        0.15075    0.43775    0.65075    1.000
    Ow7      O        0.93775    0.65075    0.65075    1.000
    Ow7      O        0.31225    0.15075    0.09925    1.000
    Ow7      O        0.81225    0.59925    0.15075    1.000
    Ow7      O        0.15075    0.65075    0.43775    1.000
    Ow7      O        0.59925    0.59925    0.93775    1.000
    Ow7      O        0.09925    0.15075    0.31225    1.000
    Ow7      O        0.81225    0.15075    0.59925    1.000
    Ow7      O        0.31225    0.09925    0.15075    1.000
    Ow7      O        0.09925    0.31225    0.15075    1.000
    Ow7      O        0.59925    0.93775    0.59925    1.000
    Ow7      O        0.09925    0.09925    0.93775    1.000
    Ow7      O        0.59925    0.15075    0.81225    1.000
    Ow7      O        0.90075    0.06225    0.90075    1.000
    Ow7      O        0.40075    0.18775    0.84925    1.000
    Ow7      O        0.68775    0.84925    0.90075    1.000
    Ow7      O        0.18775    0.40075    0.84925    1.000
    Ow7      O        0.40075    0.40075    0.06225    1.000
    Ow7      O        0.90075    0.84925    0.68775    1.000
    Ow7      O        0.06225    0.90075    0.90075    1.000
    Ow7      O        0.56225    0.84925    0.34925    1.000
    Ow7      O        0.34925    0.06225    0.34925    1.000
    Ow7      O        0.84925    0.68775    0.90075    1.000
    Ow7      O        0.84925    0.90075    0.68775    1.000
    Ow7      O        0.34925    0.84925    0.56225    1.000
    Ow7      O        0.15075    0.81225    0.59925    1.000
    Ow7      O        0.65075    0.93775    0.65075    1.000
    Ow7      O        0.43775    0.15075    0.65075    1.000
    Ow7      O        0.93775    0.59925    0.59925    1.000
    Ow7      O        0.15075    0.59925    0.81225    1.000
    Ow7      O        0.65075    0.15075    0.43775    1.000
    Ow7      O        0.93775    0.09925    0.09925    1.000
    Ow7      O        0.15075    0.31225    0.09925    1.000
    Ow7      O        0.15075    0.09925    0.31225    1.000
    Ow7      O        0.84925    0.18775    0.40075    1.000
    Ow7      O        0.06225    0.40075    0.40075    1.000
    Ow7      O        0.84925    0.40075    0.18775    1.000
    Ow7      O        0.56225    0.34925    0.84925    1.000
    Ow7      O        0.34925    0.56225    0.84925    1.000
    Ow7      O        0.34925    0.34925    0.06225    1.000
    Ow7      O        0.65075    0.43775    0.15075    1.000
    Ow7      O        0.43775    0.65075    0.15075    1.000
    Ow7      O        0.65075    0.65075    0.93775    1.000
    Ow8      O        0.86440    0.36440    0.38560    1.000
    Ow8      O        0.36440    0.38560    0.86440    1.000
    Ow8      O        0.38560    0.86440    0.36440    1.000
    Ow8      O        0.63560    0.13560    0.61440    1.000
    Ow8      O        0.11440    0.11440    0.11440    1.000
    Ow8      O        0.13560    0.61440    0.63560    1.000
    Ow8      O        0.61440    0.63560    0.13560    1.000
    Ow8      O        0.13560    0.63560    0.61440    1.000
    Ow8      O        0.63560    0.61440    0.13560    1.000
    Ow8      O        0.61440    0.13560    0.63560    1.000
    Ow8      O        0.36440    0.86440    0.38560    1.000
    Ow8      O        0.86440    0.38560    0.36440    1.000
    Ow8      O        0.38560    0.36440    0.86440    1.000
    Ow8      O        0.88560    0.38560    0.38560    1.000
    Ow8      O        0.86440    0.86440    0.88560    1.000
    Ow8      O        0.36440    0.88560    0.36440    1.000
    Ow8      O        0.63560    0.63560    0.11440    1.000
    Ow8      O        0.11440    0.61440    0.61440    1.000
    Ow8      O        0.13560    0.11440    0.13560    1.000
    Ow8      O        0.13560    0.13560    0.11440    1.000
    Ow8      O        0.63560    0.11440    0.63560    1.000
    Ow8      O        0.36440    0.36440    0.88560    1.000
    Ow8      O        0.86440    0.88560    0.86440    1.000
    Ow8      O        0.38560    0.88560    0.38560    1.000
    Ow8      O        0.88560    0.86440    0.86440    1.000
    Ow8      O        0.61440    0.11440    0.61440    1.000
    Ow8      O        0.11440    0.63560    0.63560    1.000
    Ow8      O        0.11440    0.13560    0.13560    1.000
    Ow8      O        0.88560    0.36440    0.36440    1.000
    Ow8      O        0.38560    0.38560    0.88560    1.000
    Ow8      O        0.61440    0.61440    0.11440    1.000
    Ow9      O        0.59189    0.92596    0.09189    1.000
    Ow9      O        0.09189    0.82404    0.15811    1.000
    Ow9      O        0.65811    0.42596    0.65811    1.000
    Ow9      O        0.59189    0.15811    0.32404    1.000
    Ow9      O        0.09189    0.59189    0.92596    1.000
    Ow9      O        0.15811    0.09189    0.82404    1.000
    Ow9      O        0.65811    0.65811    0.42596    1.000
    Ow9      O        0.32404    0.59189    0.15811    1.000
    Ow9      O        0.92596    0.09189    0.59189    1.000
    Ow9      O        0.82404    0.15811    0.09189    1.000
    Ow9      O        0.42596    0.65811    0.65811    1.000
    Ow9      O        0.07404    0.40811    0.90811    1.000
    Ow9      O        0.67596    0.84189    0.40811    1.000
    Ow9      O        0.57404    0.34189    0.34189    1.000
    Ow9      O        0.17596    0.90811    0.84189    1.000
    Ow9      O        0.90811    0.84189    0.17596    1.000
    Ow9      O        0.34189    0.34189    0.57404    1.000
    Ow9      O        0.84189    0.40811    0.67596    1.000
    Ow9      O        0.40811    0.90811    0.07404    1.000
    Ow9      O        0.34189    0.57404    0.34189    1.000
    Ow9      O        0.84189    0.17596    0.90811    1.000
    Ow9      O        0.90811    0.07404    0.40811    1.000
    Ow9      O        0.40811    0.67596    0.84189    1.000
    Ow9      O        0.84189    0.67596    0.40811    1.000
    Ow9      O        0.40811    0.07404    0.90811    1.000
    Ow9      O        0.90811    0.17596    0.84189    1.000
    Ow9      O        0.40811    0.84189    0.67596    1.000
    Ow9      O        0.90811    0.40811    0.07404    1.000
    Ow9      O        0.84189    0.90811    0.17596    1.000
    Ow9      O        0.67596    0.40811    0.84189    1.000
    Ow9      O        0.07404    0.90811    0.40811    1.000
    Ow9      O        0.17596    0.84189    0.90811    1.000
    Ow9      O        0.92596    0.59189    0.09189    1.000
    Ow9      O        0.32404    0.15811    0.59189    1.000
    Ow9      O        0.82404    0.09189    0.15811    1.000
    Ow9      O        0.09189    0.15811    0.82404    1.000
    Ow9      O        0.15811    0.59189    0.32404    1.000
    Ow9      O        0.59189    0.09189    0.92596    1.000
    Ow9      O        0.15811    0.82404    0.09189    1.000
    Ow9      O        0.09189    0.92596    0.59189    1.000
    Ow9      O        0.59189    0.32404    0.15811    1.000
    Ow9      O        0.59189    0.42596    0.59189    1.000
    Ow9      O        0.09189    0.32404    0.65811    1.000
    Ow9      O        0.65811    0.92596    0.15811    1.000
    Ow9      O        0.59189    0.65811    0.82404    1.000
    Ow9      O        0.09189    0.09189    0.42596    1.000
    Ow9      O        0.65811    0.15811    0.92596    1.000
    Ow9      O        0.32404    0.09189    0.65811    1.000
    Ow9      O        0.82404    0.65811    0.59189    1.000
    Ow9      O        0.42596    0.15811    0.15811    1.000
    Ow9      O        0.67596    0.34189    0.90811    1.000
    Ow9      O        0.57404    0.84189    0.84189    1.000
    Ow9      O        0.17596    0.40811    0.34189    1.000
    Ow9      O        0.90811    0.34189    0.67596    1.000
    Ow9      O        0.34189    0.84189    0.07404    1.000
    Ow9      O        0.40811    0.40811    0.57404    1.000
    Ow9      O        0.34189    0.07404    0.84189    1.000
    Ow9      O        0.90811    0.57404    0.90811    1.000
    Ow9      O        0.40811    0.17596    0.34189    1.000
    Ow9      O        0.40811    0.57404    0.40811    1.000
    Ow9      O        0.90811    0.67596    0.34189    1.000
    Ow9      O        0.40811    0.34189    0.17596    1.000
    Ow9      O        0.90811    0.90811    0.57404    1.000
    Ow9      O        0.67596    0.90811    0.34189    1.000
    Ow9      O        0.17596    0.34189    0.40811    1.000
    Ow9      O        0.32404    0.65811    0.09189    1.000
    Ow9      O        0.82404    0.59189    0.65811    1.000
    Ow9      O        0.09189    0.65811    0.32404    1.000
    Ow9      O        0.59189    0.59189    0.42596    1.000
    Ow9      O        0.09189    0.42596    0.09189    1.000
    Ow9      O        0.59189    0.82404    0.65811    1.000
    Ow9      O        0.65811    0.32404    0.09189    1.000
    Ow9      O        0.15811    0.42596    0.15811    1.000
    Ow9      O        0.65811    0.09189    0.32404    1.000
    Ow9      O        0.15811    0.65811    0.92596    1.000
    Ow9      O        0.42596    0.09189    0.09189    1.000
    Ow9      O        0.92596    0.65811    0.15811    1.000
    Ow9      O        0.57404    0.40811    0.40811    1.000
    Ow9      O        0.07404    0.34189    0.84189    1.000
    Ow9      O        0.84189    0.34189    0.07404    1.000
    Ow9      O        0.34189    0.40811    0.17596    1.000
    Ow9      O        0.84189    0.57404    0.84189    1.000
    Ow9      O        0.34189    0.17596    0.40811    1.000
    Ow9      O        0.34189    0.67596    0.90811    1.000
    Ow9      O        0.34189    0.90811    0.67596    1.000
    Ow9      O        0.57404    0.90811    0.90811    1.000
    Ow9      O        0.42596    0.59189    0.59189    1.000
    Ow9      O        0.65811    0.59189    0.82404    1.000
    Ow9      O        0.65811    0.82404    0.59189    1.000
    Ow9      O        0.15811    0.92596    0.65811    1.000
    Ow9      O        0.15811    0.15811    0.42596    1.000
    Ow9      O        0.92596    0.15811    0.65811    1.000
    Ow9      O        0.07404    0.84189    0.34189    1.000
    Ow9      O        0.84189    0.84189    0.57404    1.000
    Ow9      O        0.84189    0.07404    0.34189    1.000
    Ow10     O        0.82621    0.32621    0.39878    1.000
    Ow10     O        0.32621    0.42379    0.85122    1.000
    Ow10     O        0.42379    0.82621    0.35122    1.000
    Ow10     O        0.89878    0.92379    0.92379    1.000
    Ow10     O        0.39878    0.82621    0.32621    1.000
    Ow10     O        0.85122    0.32621    0.42379    1.000
    Ow10     O        0.35122    0.42379    0.82621    1.000
    Ow10     O        0.92379    0.89878    0.92379    1.000
    Ow10     O        0.32621    0.39878    0.82621    1.000
    Ow10     O        0.42379    0.85122    0.32621    1.000
    Ow10     O        0.82621    0.35122    0.42379    1.000
    Ow10     O        0.67379    0.17379    0.60122    1.000
    Ow10     O        0.07621    0.07621    0.10122    1.000
    Ow10     O        0.17379    0.57621    0.64878    1.000
    Ow10     O        0.57621    0.67379    0.14878    1.000
    Ow10     O        0.67379    0.14878    0.57621    1.000
    Ow10     O        0.57621    0.64878    0.17379    1.000
    Ow10     O        0.07621    0.10122    0.07621    1.000
    Ow10     O        0.17379    0.60122    0.67379    1.000
    Ow10     O        0.64878    0.17379    0.57621    1.000
    Ow10     O        0.14878    0.57621    0.67379    1.000
    Ow10     O        0.60122    0.67379    0.17379    1.000
    Ow10     O        0.10122    0.07621    0.07621    1.000
    Ow10     O        0.17379    0.67379    0.60122    1.000
    Ow10     O        0.67379    0.57621    0.14878    1.000
    Ow10     O        0.57621    0.17379    0.64878    1.000
    Ow10     O        0.60122    0.17379    0.67379    1.000
    Ow10     O        0.14878    0.67379    0.57621    1.000
    Ow10     O        0.64878    0.57621    0.17379    1.000
    Ow10     O        0.67379    0.60122    0.17379    1.000
    Ow10     O        0.57621    0.14878    0.67379    1.000
    Ow10     O        0.17379    0.64878    0.57621    1.000
    Ow10     O        0.32621    0.82621    0.39878    1.000
    Ow10     O        0.82621    0.42379    0.35122    1.000
    Ow10     O        0.42379    0.32621    0.85122    1.000
    Ow10     O        0.32621    0.85122    0.42379    1.000
    Ow10     O        0.42379    0.35122    0.82621    1.000
    Ow10     O        0.82621    0.39878    0.32621    1.000
    Ow10     O        0.35122    0.82621    0.42379    1.000
    Ow10     O        0.85122    0.42379    0.32621    1.000
    Ow10     O        0.39878    0.32621    0.82621    1.000
    Ow10     O        0.92379    0.42379    0.39878    1.000
    Ow10     O        0.82621    0.82621    0.89878    1.000
    Ow10     O        0.32621    0.92379    0.35122    1.000
    Ow10     O        0.89878    0.42379    0.42379    1.000
    Ow10     O        0.85122    0.82621    0.92379    1.000
    Ow10     O        0.35122    0.92379    0.32621    1.000
    Ow10     O        0.92379    0.39878    0.42379    1.000
    Ow10     O        0.32621    0.89878    0.32621    1.000
    Ow10     O        0.82621    0.85122    0.92379    1.000
    Ow10     O        0.67379    0.67379    0.10122    1.000
    Ow10     O        0.07621    0.57621    0.60122    1.000
    Ow10     O        0.17379    0.07621    0.14878    1.000
    Ow10     O        0.67379    0.64878    0.07621    1.000
    Ow10     O        0.07621    0.60122    0.57621    1.000
    Ow10     O        0.17379    0.10122    0.17379    1.000
    Ow10     O        0.64878    0.67379    0.07621    1.000
    Ow10     O        0.14878    0.07621    0.17379    1.000
    Ow10     O        0.10122    0.57621    0.57621    1.000
    Ow10     O        0.17379    0.17379    0.10122    1.000
    Ow10     O        0.67379    0.07621    0.64878    1.000
    Ow10     O        0.14878    0.17379    0.07621    1.000
    Ow10     O        0.64878    0.07621    0.67379    1.000
    Ow10     O        0.67379    0.10122    0.67379    1.000
    Ow10     O        0.17379    0.14878    0.07621    1.000
    Ow10     O        0.32621    0.32621    0.89878    1.000
    Ow10     O        0.82621    0.92379    0.85122    1.000
    Ow10     O        0.32621    0.35122    0.92379    1.000
    Ow10     O        0.82621    0.89878    0.82621    1.000
    Ow10     O        0.35122    0.32621    0.92379    1.000
    Ow10     O        0.85122    0.92379    0.82621    1.000
    Ow10     O        0.42379    0.92379    0.39878    1.000
    Ow10     O        0.92379    0.82621    0.85122    1.000
    Ow10     O        0.39878    0.92379    0.42379    1.000
    Ow10     O        0.89878    0.82621    0.82621    1.000
    Ow10     O        0.42379    0.89878    0.42379    1.000
    Ow10     O        0.92379    0.85122    0.82621    1.000
    Ow10     O        0.57621    0.07621    0.60122    1.000
    Ow10     O        0.07621    0.67379    0.64878    1.000
    Ow10     O        0.07621    0.64878    0.67379    1.000
    Ow10     O        0.57621    0.10122    0.57621    1.000
    Ow10     O        0.10122    0.67379    0.67379    1.000
    Ow10     O        0.60122    0.07621    0.57621    1.000
    Ow10     O        0.07621    0.17379    0.14878    1.000
    Ow10     O        0.10122    0.17379    0.17379    1.000
    Ow10     O        0.07621    0.14878    0.17379    1.000
    Ow10     O        0.92379    0.32621    0.35122    1.000
    Ow10     O        0.92379    0.35122    0.32621    1.000
    Ow10     O        0.89878    0.32621    0.32621    1.000
    Ow10     O        0.42379    0.42379    0.89878    1.000
    Ow10     O        0.39878    0.42379    0.92379    1.000
    Ow10     O        0.42379    0.39878    0.92379    1.000
    Ow10     O        0.57621    0.57621    0.10122    1.000
    Ow10     O        0.57621    0.60122    0.07621    1.000
    Ow10     O        0.60122    0.57621    0.07621    1.000
    Ow11     O        0.54118    0.87500    0.37500    1.000
    Ow11     O        0.04118    0.87500    0.87500    1.000
    Ow11     O        0.70882    0.37500    0.37500    1.000
    Ow11     O        0.87500    0.20882    0.37500    1.000
    Ow11     O        0.37500    0.54118    0.87500    1.000
    Ow11     O        0.87500    0.04118    0.87500    1.000
    Ow11     O        0.37500    0.70882    0.37500    1.000
    Ow11     O        0.37500    0.87500    0.20882    1.000
    Ow11     O        0.87500    0.37500    0.54118    1.000
    Ow11     O        0.87500    0.87500    0.04118    1.000
    Ow11     O        0.37500    0.37500    0.70882    1.000
    Ow11     O        0.12500    0.45882    0.62500    1.000
    Ow11     O        0.62500    0.79118    0.12500    1.000
    Ow11     O        0.62500    0.29118    0.62500    1.000
    Ow11     O        0.12500    0.95882    0.12500    1.000
    Ow11     O        0.95882    0.12500    0.12500    1.000
    Ow11     O        0.29118    0.62500    0.62500    1.000
    Ow11     O        0.79118    0.12500    0.62500    1.000
    Ow11     O        0.45882    0.62500    0.12500    1.000
    Ow11     O        0.62500    0.62500    0.29118    1.000
    Ow11     O        0.12500    0.12500    0.95882    1.000
    Ow11     O        0.62500    0.12500    0.45882    1.000
    Ow11     O        0.12500    0.62500    0.79118    1.000
    Ow11     O        0.79118    0.62500    0.12500    1.000
    Ow11     O        0.45882    0.12500    0.62500    1.000
    Ow11     O        0.12500    0.79118    0.62500    1.000
    Ow11     O        0.62500    0.45882    0.12500    1.000
    Ow11     O        0.62500    0.12500    0.79118    1.000
    Ow11     O        0.12500    0.62500    0.45882    1.000
    Ow11     O        0.87500    0.54118    0.37500    1.000
    Ow11     O        0.37500    0.20882    0.87500    1.000
    Ow11     O        0.20882    0.87500    0.37500    1.000
    Ow11     O        0.54118    0.37500    0.87500    1.000
    Ow11     O        0.37500    0.87500    0.54118    1.000
    Ow11     O        0.87500    0.37500    0.20882    1.000
    Ow11     O        0.04118    0.37500    0.37500    1.000
    Ow11     O        0.70882    0.87500    0.87500    1.000
    Ow11     O        0.87500    0.70882    0.87500    1.000
    Ow11     O        0.37500    0.04118    0.37500    1.000
    Ow11     O        0.95882    0.62500    0.62500    1.000
    Ow11     O        0.29118    0.12500    0.12500    1.000
    Ow11     O        0.62500    0.62500    0.95882    1.000
    Ow11     O        0.12500    0.12500    0.29118    1.000
    Ow11     O        0.12500    0.29118    0.12500    1.000
    Ow11     O        0.62500    0.95882    0.62500    1.000
    Ow11     O        0.37500    0.37500    0.04118    1.000
    Ow11     O        0.87500    0.87500    0.70882    1.000
    Ow12     O        0.63536    0.28449    0.01497    1.000
    Ow12     O        0.13536    0.46551    0.23503    1.000
    Ow12     O        0.61464    0.78449    0.73503    1.000
    Ow12     O        0.51497    0.11464    0.96551    1.000
    Ow12     O        0.01497    0.63536    0.28449    1.000
    Ow12     O        0.23503    0.13536    0.46551    1.000
    Ow12     O        0.73503    0.61464    0.78449    1.000
    Ow12     O        0.96551    0.51497    0.11464    1.000
    Ow12     O        0.28449    0.01497    0.63536    1.000
    Ow12     O        0.46551    0.23503    0.13536    1.000
    Ow12     O        0.78449    0.73503    0.61464    1.000
    Ow12     O        0.71551    0.36464    0.98503    1.000
    Ow12     O        0.03449    0.88536    0.48503    1.000
    Ow12     O        0.21551    0.38536    0.26497    1.000
    Ow12     O        0.53449    0.86464    0.76497    1.000
    Ow12     O        0.86464    0.76497    0.53449    1.000
    Ow12     O        0.38536    0.26497    0.21551    1.000
    Ow12     O        0.88536    0.48503    0.03449    1.000
    Ow12     O        0.36464    0.98503    0.71551    1.000
    Ow12     O        0.26497    0.21551    0.38536    1.000
    Ow12     O        0.76497    0.53449    0.86464    1.000
    Ow12     O        0.98503    0.71551    0.36464    1.000
    Ow12     O        0.48503    0.03449    0.88536    1.000
    Ow12     O        0.88536    0.03449    0.48503    1.000
    Ow12     O        0.36464    0.71551    0.98503    1.000
    Ow12     O        0.86464    0.53449    0.76497    1.000
    Ow12     O        0.38536    0.21551    0.26497    1.000
    Ow12     O        0.48503    0.88536    0.03449    1.000
    Ow12     O        0.98503    0.36464    0.71551    1.000
    Ow12     O        0.76497    0.86464    0.53449    1.000
    Ow12     O        0.26497    0.38536    0.21551    1.000
    Ow12     O        0.03449    0.48503    0.88536    1.000
    Ow12     O        0.71551    0.98503    0.36464    1.000
    Ow12     O        0.53449    0.76497    0.86464    1.000
    Ow12     O        0.21551    0.26497    0.38536    1.000
    Ow12     O        0.28449    0.63536    0.01497    1.000
    Ow12     O        0.96551    0.11464    0.51497    1.000
    Ow12     O        0.78449    0.61464    0.73503    1.000
    Ow12     O        0.46551    0.13536    0.23503    1.000
    Ow12     O        0.13536    0.23503    0.46551    1.000
    Ow12     O        0.61464    0.73503    0.78449    1.000
    Ow12     O        0.11464    0.51497    0.96551    1.000
    Ow12     O        0.63536    0.01497    0.28449    1.000
    Ow12     O        0.73503    0.78449    0.61464    1.000
    Ow12     O        0.23503    0.46551    0.13536    1.000
    Ow12     O        0.01497    0.28449    0.63536    1.000
    Ow12     O        0.51497    0.96551    0.11464    1.000
    Ow12     O        0.11464    0.46551    0.01497    1.000
    Ow12     O        0.63536    0.78449    0.51497    1.000
    Ow12     O        0.13536    0.96551    0.73503    1.000
    Ow12     O        0.61464    0.28449    0.23503    1.000
    Ow12     O        0.51497    0.61464    0.46551    1.000
    Ow12     O        0.01497    0.13536    0.78449    1.000
    Ow12     O        0.23503    0.63536    0.96551    1.000
    Ow12     O        0.73503    0.11464    0.28449    1.000
    Ow12     O        0.96551    0.01497    0.61464    1.000
    Ow12     O        0.28449    0.51497    0.13536    1.000
    Ow12     O        0.46551    0.73503    0.63536    1.000
    Ow12     O        0.78449    0.23503    0.11464    1.000
    Ow12     O        0.71551    0.86464    0.48503    1.000
    Ow12     O        0.03449    0.38536    0.98503    1.000
    Ow12     O        0.21551    0.88536    0.76497    1.000
    Ow12     O        0.53449    0.36464    0.26497    1.000
    Ow12     O        0.86464    0.26497    0.03449    1.000
    Ow12     O        0.38536    0.76497    0.71551    1.000
    Ow12     O        0.88536    0.98503    0.53449    1.000
    Ow12     O        0.36464    0.48503    0.21551    1.000
    Ow12     O        0.26497    0.71551    0.88536    1.000
    Ow12     O        0.76497    0.03449    0.36464    1.000
    Ow12     O        0.98503    0.21551    0.86464    1.000
    Ow12     O        0.48503    0.53449    0.38536    1.000
    Ow12     O        0.88536    0.53449    0.98503    1.000
    Ow12     O        0.36464    0.21551    0.48503    1.000
    Ow12     O        0.86464    0.03449    0.26497    1.000
    Ow12     O        0.38536    0.71551    0.76497    1.000
    Ow12     O        0.48503    0.38536    0.53449    1.000
    Ow12     O        0.98503    0.86464    0.21551    1.000
    Ow12     O        0.76497    0.36464    0.03449    1.000
    Ow12     O        0.26497    0.88536    0.71551    1.000
    Ow12     O        0.03449    0.98503    0.38536    1.000
    Ow12     O        0.71551    0.48503    0.86464    1.000
    Ow12     O        0.53449    0.26497    0.36464    1.000
    Ow12     O        0.21551    0.76497    0.88536    1.000
    Ow12     O        0.28449    0.13536    0.51497    1.000
    Ow12     O        0.96551    0.61464    0.01497    1.000
    Ow12     O        0.78449    0.11464    0.23503    1.000
    Ow12     O        0.46551    0.63536    0.73503    1.000
    Ow12     O        0.13536    0.73503    0.96551    1.000
    Ow12     O        0.61464    0.23503    0.28449    1.000
    Ow12     O        0.11464    0.01497    0.46551    1.000
    Ow12     O        0.63536    0.51497    0.78449    1.000
    Ow12     O        0.73503    0.28449    0.11464    1.000
    Ow12     O        0.23503    0.96551    0.63536    1.000
    Ow12     O        0.01497    0.78449    0.13536    1.000
    Ow12     O        0.51497    0.46551    0.61464    1.000
    Ow12     O        0.61464    0.96551    0.01497    1.000
    Ow12     O        0.13536    0.28449    0.51497    1.000
    Ow12     O        0.63536    0.46551    0.73503    1.000
    Ow12     O        0.11464    0.78449    0.23503    1.000
    Ow12     O        0.01497    0.11464    0.46551    1.000
    Ow12     O        0.51497    0.63536    0.78449    1.000
    Ow12     O        0.73503    0.13536    0.96551    1.000
    Ow12     O        0.23503    0.61464    0.28449    1.000
    Ow12     O        0.46551    0.51497    0.61464    1.000
    Ow12     O        0.78449    0.01497    0.13536    1.000
    Ow12     O        0.96551    0.23503    0.63536    1.000
    Ow12     O        0.28449    0.73503    0.11464    1.000
    Ow12     O        0.21551    0.36464    0.48503    1.000
    Ow12     O        0.53449    0.88536    0.98503    1.000
    Ow12     O        0.71551    0.38536    0.76497    1.000
    Ow12     O        0.03449    0.86464    0.26497    1.000
    Ow12     O        0.36464    0.76497    0.03449    1.000
    Ow12     O        0.88536    0.26497    0.71551    1.000
    Ow12     O        0.38536    0.48503    0.53449    1.000
    Ow12     O        0.86464    0.98503    0.21551    1.000
    Ow12     O        0.76497    0.21551    0.88536    1.000
    Ow12     O        0.26497    0.53449    0.36464    1.000
    Ow12     O        0.48503    0.71551    0.86464    1.000
    Ow12     O        0.98503    0.03449    0.38536    1.000
    Ow12     O        0.38536    0.03449    0.98503    1.000
    Ow12     O        0.86464    0.71551    0.48503    1.000
    Ow12     O        0.36464    0.53449    0.26497    1.000
    Ow12     O        0.88536    0.21551    0.76497    1.000
    Ow12     O        0.98503    0.88536    0.53449    1.000
    Ow12     O        0.48503    0.36464    0.21551    1.000
    Ow12     O        0.26497    0.86464    0.03449    1.000
    Ow12     O        0.76497    0.38536    0.71551    1.000
    Ow12     O        0.53449    0.48503    0.38536    1.000
    Ow12     O        0.21551    0.98503    0.86464    1.000
    Ow12     O        0.03449    0.76497    0.36464    1.000
    Ow12     O        0.71551    0.26497    0.88536    1.000
    Ow12     O        0.78449    0.63536    0.51497    1.000
    Ow12     O        0.46551    0.11464    0.01497    1.000
    Ow12     O        0.28449    0.61464    0.23503    1.000
    Ow12     O        0.96551    0.13536    0.73503    1.000
    Ow12     O        0.63536    0.23503    0.96551    1.000
    Ow12     O        0.11464    0.73503    0.28449    1.000
    Ow12     O        0.61464    0.51497    0.46551    1.000
    Ow12     O        0.13536    0.01497    0.78449    1.000
    Ow12     O        0.23503    0.78449    0.11464    1.000
    Ow12     O        0.73503    0.46551    0.63536    1.000
    Ow12     O        0.51497    0.28449    0.13536    1.000
    Ow12     O        0.01497    0.96551    0.61464    1.000
    Ow12     O        0.61464    0.46551    0.51497    1.000
    Ow12     O        0.13536    0.78449    0.01497    1.000
    Ow12     O        0.63536    0.96551    0.23503    1.000
    Ow12     O        0.11464    0.28449    0.73503    1.000
    Ow12     O        0.01497    0.61464    0.96551    1.000
    Ow12     O        0.51497    0.13536    0.28449    1.000
    Ow12     O        0.73503    0.63536    0.46551    1.000
    Ow12     O        0.23503    0.11464    0.78449    1.000
    Ow12     O        0.46551    0.01497    0.11464    1.000
    Ow12     O        0.78449    0.51497    0.63536    1.000
    Ow12     O        0.96551    0.73503    0.13536    1.000
    Ow12     O        0.28449    0.23503    0.61464    1.000
    Ow12     O        0.21551    0.86464    0.98503    1.000
    Ow12     O        0.53449    0.38536    0.48503    1.000
    Ow12     O        0.71551    0.88536    0.26497    1.000
    Ow12     O        0.03449    0.36464    0.76497    1.000
    Ow12     O        0.36464    0.26497    0.53449    1.000
    Ow12     O        0.88536    0.76497    0.21551    1.000
    Ow12     O        0.38536    0.98503    0.03449    1.000
    Ow12     O        0.86464    0.48503    0.71551    1.000
    Ow12     O        0.76497    0.71551    0.38536    1.000
    Ow12     O        0.26497    0.03449    0.86464    1.000
    Ow12     O        0.48503    0.21551    0.36464    1.000
    Ow12     O        0.98503    0.53449    0.88536    1.000
    Ow12     O        0.38536    0.53449    0.48503    1.000
    Ow12     O        0.86464    0.21551    0.98503    1.000
    Ow12     O        0.36464    0.03449    0.76497    1.000
    Ow12     O        0.88536    0.71551    0.26497    1.000
    Ow12     O        0.98503    0.38536    0.03449    1.000
    Ow12     O        0.48503    0.86464    0.71551    1.000
    Ow12     O        0.26497    0.36464    0.53449    1.000
    Ow12     O        0.76497    0.88536    0.21551    1.000
    Ow12     O        0.53449    0.98503    0.88536    1.000
    Ow12     O        0.21551    0.48503    0.36464    1.000
    Ow12     O        0.03449    0.26497    0.86464    1.000
    Ow12     O        0.71551    0.76497    0.38536    1.000
    Ow12     O        0.78449    0.13536    0.01497    1.000
    Ow12     O        0.46551    0.61464    0.51497    1.000
    Ow12     O        0.28449    0.11464    0.73503    1.000
    Ow12     O        0.96551    0.63536    0.23503    1.000
    Ow12     O        0.63536    0.73503    0.46551    1.000
    Ow12     O        0.11464    0.23503    0.78449    1.000
    Ow12     O        0.61464    0.01497    0.96551    1.000
    Ow12     O        0.13536    0.51497    0.28449    1.000
    Ow12     O        0.23503    0.28449    0.61464    1.000
    Ow12     O        0.73503    0.96551    0.13536    1.000
    Ow12     O        0.51497    0.78449    0.63536    1.000
    Ow12     O        0.01497    0.46551    0.11464    1.000
    Ow13     O        0.66840    0.32090    0.92910    1.000
    Ow13     O        0.16840    0.42910    0.32090    1.000
    Ow13     O        0.58160    0.82090    0.82090    1.000
    Ow13     O        0.42910    0.08160    0.92910    1.000
    Ow13     O        0.92910    0.66840    0.32090    1.000
    Ow13     O        0.32090    0.16840    0.42910    1.000
    Ow13     O        0.82090    0.58160    0.82090    1.000
    Ow13     O        0.92910    0.42910    0.08160    1.000
    Ow13     O        0.32090    0.92910    0.66840    1.000
    Ow13     O        0.42910    0.32090    0.16840    1.000
    Ow13     O        0.82090    0.82090    0.58160    1.000
    Ow13     O        0.67910    0.33160    0.07090    1.000
    Ow13     O        0.07090    0.91840    0.57090    1.000
    Ow13     O        0.17910    0.41840    0.17910    1.000
    Ow13     O        0.57090    0.83160    0.67910    1.000
    Ow13     O        0.83160    0.67910    0.57090    1.000
    Ow13     O        0.41840    0.17910    0.17910    1.000
    Ow13     O        0.91840    0.57090    0.07090    1.000
    Ow13     O        0.33160    0.07090    0.67910    1.000
    Ow13     O        0.17910    0.17910    0.41840    1.000
    Ow13     O        0.67910    0.57090    0.83160    1.000
    Ow13     O        0.07090    0.67910    0.33160    1.000
    Ow13     O        0.57090    0.07090    0.91840    1.000
    Ow13     O        0.91840    0.07090    0.57090    1.000
    Ow13     O        0.33160    0.67910    0.07090    1.000
    Ow13     O        0.83160    0.57090    0.67910    1.000
    Ow13     O        0.57090    0.91840    0.07090    1.000
    Ow13     O        0.07090    0.33160    0.67910    1.000
    Ow13     O        0.67910    0.83160    0.57090    1.000
    Ow13     O        0.07090    0.57090    0.91840    1.000
    Ow13     O        0.67910    0.07090    0.33160    1.000
    Ow13     O        0.57090    0.67910    0.83160    1.000
    Ow13     O        0.32090    0.66840    0.92910    1.000
    Ow13     O        0.92910    0.08160    0.42910    1.000
    Ow13     O        0.42910    0.16840    0.32090    1.000
    Ow13     O        0.16840    0.32090    0.42910    1.000
    Ow13     O        0.08160    0.42910    0.92910    1.000
    Ow13     O        0.66840    0.92910    0.32090    1.000
    Ow13     O        0.32090    0.42910    0.16840    1.000
    Ow13     O        0.92910    0.32090    0.66840    1.000
    Ow13     O        0.42910    0.92910    0.08160    1.000
    Ow13     O        0.66840    0.82090    0.42910    1.000
    Ow13     O        0.16840    0.92910    0.82090    1.000
    Ow13     O        0.58160    0.32090    0.32090    1.000
    Ow13     O        0.42910    0.58160    0.42910    1.000
    Ow13     O        0.92910    0.16840    0.82090    1.000
    Ow13     O        0.82090    0.08160    0.32090    1.000
    Ow13     O        0.92910    0.92910    0.58160    1.000
    Ow13     O        0.42910    0.82090    0.66840    1.000
    Ow13     O        0.82090    0.32090    0.08160    1.000
    Ow13     O        0.07090    0.41840    0.07090    1.000
    Ow13     O        0.17910    0.91840    0.67910    1.000
    Ow13     O        0.57090    0.33160    0.17910    1.000
    Ow13     O        0.83160    0.17910    0.07090    1.000
    Ow13     O        0.41840    0.67910    0.67910    1.000
    Ow13     O        0.33160    0.57090    0.17910    1.000
    Ow13     O        0.17910    0.67910    0.91840    1.000
    Ow13     O        0.07090    0.17910    0.83160    1.000
    Ow13     O        0.57090    0.57090    0.41840    1.000
    Ow13     O        0.33160    0.17910    0.57090    1.000
    Ow13     O        0.83160    0.07090    0.17910    1.000
    Ow13     O        0.57090    0.41840    0.57090    1.000
    Ow13     O        0.07090    0.83160    0.17910    1.000
    Ow13     O        0.07090    0.07090    0.41840    1.000
    Ow13     O        0.57090    0.17910    0.33160    1.000
    Ow13     O        0.92910    0.58160    0.92910    1.000
    Ow13     O        0.42910    0.66840    0.82090    1.000
    Ow13     O        0.16840    0.82090    0.92910    1.000
    Ow13     O        0.66840    0.42910    0.82090    1.000
    Ow13     O        0.92910    0.82090    0.16840    1.000
    Ow13     O        0.42910    0.42910    0.58160    1.000
    Ow13     O        0.58160    0.92910    0.92910    1.000
    Ow13     O        0.08160    0.82090    0.32090    1.000
    Ow13     O        0.82090    0.16840    0.92910    1.000
    Ow13     O        0.32090    0.58160    0.32090    1.000
    Ow13     O        0.82090    0.92910    0.16840    1.000
    Ow13     O        0.32090    0.82090    0.08160    1.000
    Ow13     O        0.17910    0.33160    0.57090    1.000
    Ow13     O        0.67910    0.41840    0.67910    1.000
    Ow13     O        0.91840    0.17910    0.67910    1.000
    Ow13     O        0.41840    0.57090    0.57090    1.000
    Ow13     O        0.67910    0.17910    0.91840    1.000
    Ow13     O        0.17910    0.57090    0.33160    1.000
    Ow13     O        0.41840    0.07090    0.07090    1.000
    Ow13     O        0.17910    0.83160    0.07090    1.000
    Ow13     O        0.17910    0.07090    0.83160    1.000
    Ow13     O        0.82090    0.66840    0.42910    1.000
    Ow13     O        0.58160    0.42910    0.42910    1.000
    Ow13     O        0.82090    0.42910    0.66840    1.000
    Ow13     O        0.08160    0.32090    0.82090    1.000
    Ow13     O        0.32090    0.08160    0.82090    1.000
    Ow13     O        0.32090    0.32090    0.58160    1.000
    Ow13     O        0.67910    0.91840    0.17910    1.000
    Ow13     O        0.91840    0.67910    0.17910    1.000
    Ow13     O        0.67910    0.67910    0.41840    1.000
    Ow14     O        0.59080    0.29691    0.89261    1.000
    Ow14     O        0.09080    0.45309    0.35739    1.000
    Ow14     O        0.65920    0.79691    0.85739    1.000
    Ow14     O        0.39261    0.15920    0.95309    1.000
    Ow14     O        0.89261    0.59080    0.29691    1.000
    Ow14     O        0.35739    0.09080    0.45309    1.000
    Ow14     O        0.85739    0.65920    0.79691    1.000
    Ow14     O        0.95309    0.39261    0.15920    1.000
    Ow14     O        0.29691    0.89261    0.59080    1.000
    Ow14     O        0.45309    0.35739    0.09080    1.000
    Ow14     O        0.79691    0.85739    0.65920    1.000
    Ow14     O        0.70309    0.40920    0.10739    1.000
    Ow14     O        0.04691    0.84080    0.60739    1.000
    Ow14     O        0.20309    0.34080    0.14261    1.000
    Ow14     O        0.54691    0.90920    0.64261    1.000
    Ow14     O        0.90920    0.64261    0.54691    1.000
    Ow14     O        0.34080    0.14261    0.20309    1.000
    Ow14     O        0.84080    0.60739    0.04691    1.000
    Ow14     O        0.40920    0.10739    0.70309    1.000
    Ow14     O        0.14261    0.20309    0.34080    1.000
    Ow14     O        0.64261    0.54691    0.90920    1.000
    Ow14     O        0.10739    0.70309    0.40920    1.000
    Ow14     O        0.60739    0.04691    0.84080    1.000
    Ow14     O        0.84080    0.04691    0.60739    1.000
    Ow14     O        0.40920    0.70309    0.10739    1.000
    Ow14     O        0.90920    0.54691    0.64261    1.000
    Ow14     O        0.34080    0.20309    0.14261    1.000
    Ow14     O        0.60739    0.84080    0.04691    1.000
    Ow14     O        0.10739    0.40920    0.70309    1.000
    Ow14     O        0.64261    0.90920    0.54691    1.000
    Ow14     O        0.14261    0.34080    0.20309    1.000
    Ow14     O        0.04691    0.60739    0.84080    1.000
    Ow14     O        0.70309    0.10739    0.40920    1.000
    Ow14     O        0.54691    0.64261    0.90920    1.000
    Ow14     O        0.20309    0.14261    0.34080    1.000
    Ow14     O        0.29691    0.59080    0.89261    1.000
    Ow14     O        0.95309    0.15920    0.39261    1.000
    Ow14     O        0.79691    0.65920    0.85739    1.000
    Ow14     O        0.45309    0.09080    0.35739    1.000
    Ow14     O        0.09080    0.35739    0.45309    1.000
    Ow14     O        0.65920    0.85739    0.79691    1.000
    Ow14     O        0.15920    0.39261    0.95309    1.000
    Ow14     O        0.59080    0.89261    0.29691    1.000
    Ow14     O        0.85739    0.79691    0.65920    1.000
    Ow14     O        0.35739    0.45309    0.09080    1.000
    Ow14     O        0.89261    0.29691    0.59080    1.000
    Ow14     O        0.39261    0.95309    0.15920    1.000
    Ow14     O        0.15920    0.45309    0.89261    1.000
    Ow14     O        0.59080    0.79691    0.39261    1.000
    Ow14     O        0.09080    0.95309    0.85739    1.000
    Ow14     O        0.65920    0.29691    0.35739    1.000
    Ow14     O        0.39261    0.65920    0.45309    1.000
    Ow14     O        0.89261    0.09080    0.79691    1.000
    Ow14     O        0.35739    0.59080    0.95309    1.000
    Ow14     O        0.85739    0.15920    0.29691    1.000
    Ow14     O        0.95309    0.89261    0.65920    1.000
    Ow14     O        0.29691    0.39261    0.09080    1.000
    Ow14     O        0.45309    0.85739    0.59080    1.000
    Ow14     O        0.79691    0.35739    0.15920    1.000
    Ow14     O        0.70309    0.90920    0.60739    1.000
    Ow14     O        0.04691    0.34080    0.10739    1.000
    Ow14     O        0.20309    0.84080    0.64261    1.000
    Ow14     O        0.54691    0.40920    0.14261    1.000
    Ow14     O        0.90920    0.14261    0.04691    1.000
    Ow14     O        0.34080    0.64261    0.70309    1.000
    Ow14     O        0.84080    0.10739    0.54691    1.000
    Ow14     O        0.40920    0.60739    0.20309    1.000
    Ow14     O        0.14261    0.70309    0.84080    1.000
    Ow14     O        0.64261    0.04691    0.40920    1.000
    Ow14     O        0.10739    0.20309    0.90920    1.000
    Ow14     O        0.60739    0.54691    0.34080    1.000
    Ow14     O        0.84080    0.54691    0.10739    1.000
    Ow14     O        0.40920    0.20309    0.60739    1.000
    Ow14     O        0.90920    0.04691    0.14261    1.000
    Ow14     O        0.34080    0.70309    0.64261    1.000
    Ow14     O        0.60739    0.34080    0.54691    1.000
    Ow14     O        0.10739    0.90920    0.20309    1.000
    Ow14     O        0.64261    0.40920    0.04691    1.000
    Ow14     O        0.14261    0.84080    0.70309    1.000
    Ow14     O        0.04691    0.10739    0.34080    1.000
    Ow14     O        0.70309    0.60739    0.90920    1.000
    Ow14     O        0.54691    0.14261    0.40920    1.000
    Ow14     O        0.20309    0.64261    0.84080    1.000
    Ow14     O        0.29691    0.09080    0.39261    1.000
    Ow14     O        0.95309    0.65920    0.89261    1.000
    Ow14     O        0.79691    0.15920    0.35739    1.000
    Ow14     O        0.45309    0.59080    0.85739    1.000
    Ow14     O        0.09080    0.85739    0.95309    1.000
    Ow14     O        0.65920    0.35739    0.29691    1.000
    Ow14     O        0.15920    0.89261    0.45309    1.000
    Ow14     O        0.59080    0.39261    0.79691    1.000
    Ow14     O        0.85739    0.29691    0.15920    1.000
    Ow14     O        0.35739    0.95309    0.59080    1.000
    Ow14     O        0.89261    0.79691    0.09080    1.000
    Ow14     O        0.39261    0.45309    0.65920    1.000
    Ow14     O        0.65920    0.95309    0.89261    1.000
    Ow14     O        0.09080    0.29691    0.39261    1.000
    Ow14     O        0.59080    0.45309    0.85739    1.000
    Ow14     O        0.15920    0.79691    0.35739    1.000
    Ow14     O        0.89261    0.15920    0.45309    1.000
    Ow14     O        0.39261    0.59080    0.79691    1.000
    Ow14     O        0.85739    0.09080    0.95309    1.000
    Ow14     O        0.35739    0.65920    0.29691    1.000
    Ow14     O        0.45309    0.39261    0.65920    1.000
    Ow14     O        0.79691    0.89261    0.09080    1.000
    Ow14     O        0.95309    0.35739    0.59080    1.000
    Ow14     O        0.29691    0.85739    0.15920    1.000
    Ow14     O        0.20309    0.40920    0.60739    1.000
    Ow14     O        0.54691    0.84080    0.10739    1.000
    Ow14     O        0.70309    0.34080    0.64261    1.000
    Ow14     O        0.04691    0.90920    0.14261    1.000
    Ow14     O        0.40920    0.64261    0.04691    1.000
    Ow14     O        0.84080    0.14261    0.70309    1.000
    Ow14     O        0.34080    0.60739    0.54691    1.000
    Ow14     O        0.90920    0.10739    0.20309    1.000
    Ow14     O        0.64261    0.20309    0.84080    1.000
    Ow14     O        0.14261    0.54691    0.40920    1.000
    Ow14     O        0.60739    0.70309    0.90920    1.000
    Ow14     O        0.10739    0.04691    0.34080    1.000
    Ow14     O        0.34080    0.04691    0.10739    1.000
    Ow14     O        0.90920    0.70309    0.60739    1.000
    Ow14     O        0.40920    0.54691    0.14261    1.000
    Ow14     O        0.84080    0.20309    0.64261    1.000
    Ow14     O        0.10739    0.84080    0.54691    1.000
    Ow14     O        0.60739    0.40920    0.20309    1.000
    Ow14     O        0.14261    0.90920    0.04691    1.000
    Ow14     O        0.64261    0.34080    0.70309    1.000
    Ow14     O        0.54691    0.60739    0.34080    1.000
    Ow14     O        0.20309    0.10739    0.90920    1.000
    Ow14     O        0.04691    0.64261    0.40920    1.000
    Ow14     O        0.70309    0.14261    0.84080    1.000
    Ow14     O        0.79691    0.59080    0.39261    1.000
    Ow14     O        0.45309    0.15920    0.89261    1.000
    Ow14     O        0.29691    0.65920    0.35739    1.000
    Ow14     O        0.95309    0.09080    0.85739    1.000
    Ow14     O        0.59080    0.35739    0.95309    1.000
    Ow14     O        0.15920    0.85739    0.29691    1.000
    Ow14     O        0.65920    0.39261    0.45309    1.000
    Ow14     O        0.09080    0.89261    0.79691    1.000
    Ow14     O        0.35739    0.79691    0.15920    1.000
    Ow14     O        0.85739    0.45309    0.59080    1.000
    Ow14     O        0.39261    0.29691    0.09080    1.000
    Ow14     O        0.89261    0.95309    0.65920    1.000
    Ow14     O        0.65920    0.45309    0.39261    1.000
    Ow14     O        0.09080    0.79691    0.89261    1.000
    Ow14     O        0.59080    0.95309    0.35739    1.000
    Ow14     O        0.15920    0.29691    0.85739    1.000
    Ow14     O        0.89261    0.65920    0.95309    1.000
    Ow14     O        0.39261    0.09080    0.29691    1.000
    Ow14     O        0.85739    0.59080    0.45309    1.000
    Ow14     O        0.35739    0.15920    0.79691    1.000
    Ow14     O        0.45309    0.89261    0.15920    1.000
    Ow14     O        0.79691    0.39261    0.59080    1.000
    Ow14     O        0.95309    0.85739    0.09080    1.000
    Ow14     O        0.29691    0.35739    0.65920    1.000
    Ow14     O        0.20309    0.90920    0.10739    1.000
    Ow14     O        0.54691    0.34080    0.60739    1.000
    Ow14     O        0.70309    0.84080    0.14261    1.000
    Ow14     O        0.04691    0.40920    0.64261    1.000
    Ow14     O        0.40920    0.14261    0.54691    1.000
    Ow14     O        0.84080    0.64261    0.20309    1.000
    Ow14     O        0.34080    0.10739    0.04691    1.000
    Ow14     O        0.90920    0.60739    0.70309    1.000
    Ow14     O        0.64261    0.70309    0.34080    1.000
    Ow14     O        0.14261    0.04691    0.90920    1.000
    Ow14     O        0.60739    0.20309    0.40920    1.000
    Ow14     O        0.10739    0.54691    0.84080    1.000
    Ow14     O        0.34080    0.54691    0.60739    1.000
    Ow14     O        0.90920    0.20309    0.10739    1.000
    Ow14     O        0.40920    0.04691    0.64261    1.000
    Ow14     O        0.84080    0.70309    0.14261    1.000
    Ow14     O        0.10739    0.34080    0.04691    1.000
    Ow14     O        0.60739    0.90920    0.70309    1.000
    Ow14     O        0.14261    0.40920    0.54691    1.000
    Ow14     O        0.64261    0.84080    0.20309    1.000
    Ow14     O        0.54691    0.10739    0.84080    1.000
    Ow14     O        0.20309    0.60739    0.40920    1.000
    Ow14     O        0.04691    0.14261    0.90920    1.000
    Ow14     O        0.70309    0.64261    0.34080    1.000
    Ow14     O        0.79691    0.09080    0.89261    1.000
    Ow14     O        0.45309    0.65920    0.39261    1.000
    Ow14     O        0.29691    0.15920    0.85739    1.000
    Ow14     O        0.95309    0.59080    0.35739    1.000
    Ow14     O        0.59080    0.85739    0.45309    1.000
    Ow14     O        0.15920    0.35739    0.79691    1.000
    Ow14     O        0.65920    0.89261    0.95309    1.000
    Ow14     O        0.09080    0.39261    0.29691    1.000
    Ow14     O        0.35739    0.29691    0.65920    1.000
    Ow14     O        0.85739    0.95309    0.09080    1.000
    Ow14     O        0.39261    0.79691    0.59080    1.000
    Ow14     O        0.89261    0.45309    0.15920    1.000
    Ow15     O        0.61675    0.27995    0.97005    1.000
    Ow15     O        0.11675    0.47005    0.27995    1.000
    Ow15     O        0.63325    0.77995    0.77995    1.000
    Ow15     O        0.47005    0.13325    0.97005    1.000
    Ow15     O        0.97005    0.61675    0.27995    1.000
    Ow15     O        0.27995    0.11675    0.47005    1.000
    Ow15     O        0.77995    0.63325    0.77995    1.000
    Ow15     O        0.97005    0.47005    0.13325    1.000
    Ow15     O        0.27995    0.97005    0.61675    1.000
    Ow15     O        0.47005    0.27995    0.11675    1.000
    Ow15     O        0.77995    0.77995    0.63325    1.000
    Ow15     O        0.72005    0.38325    0.02995    1.000
    Ow15     O        0.02995    0.86675    0.52995    1.000
    Ow15     O        0.22005    0.36675    0.22005    1.000
    Ow15     O        0.52995    0.88325    0.72005    1.000
    Ow15     O        0.88325    0.72005    0.52995    1.000
    Ow15     O        0.36675    0.22005    0.22005    1.000
    Ow15     O        0.86675    0.52995    0.02995    1.000
    Ow15     O        0.38325    0.02995    0.72005    1.000
    Ow15     O        0.22005    0.22005    0.36675    1.000
    Ow15     O        0.72005    0.52995    0.88325    1.000
    Ow15     O        0.02995    0.72005    0.38325    1.000
    Ow15     O        0.52995    0.02995    0.86675    1.000
    Ow15     O        0.86675    0.02995    0.52995    1.000
    Ow15     O        0.38325    0.72005    0.02995    1.000
    Ow15     O        0.88325    0.52995    0.72005    1.000
    Ow15     O        0.52995    0.86675    0.02995    1.000
    Ow15     O        0.02995    0.38325    0.72005    1.000
    Ow15     O        0.72005    0.88325    0.52995    1.000
    Ow15     O        0.02995    0.52995    0.86675    1.000
    Ow15     O        0.72005    0.02995    0.38325    1.000
    Ow15     O        0.52995    0.72005    0.88325    1.000
    Ow15     O        0.27995    0.61675    0.97005    1.000
    Ow15     O        0.97005    0.13325    0.47005    1.000
    Ow15     O        0.47005    0.11675    0.27995    1.000
    Ow15     O        0.11675    0.27995    0.47005    1.000
    Ow15     O        0.13325    0.47005    0.97005    1.000
    Ow15     O        0.61675    0.97005    0.27995    1.000
    Ow15     O        0.27995    0.47005    0.11675    1.000
    Ow15     O        0.97005    0.27995    0.61675    1.000
    Ow15     O        0.47005    0.97005    0.13325    1.000
    Ow15     O        0.61675    0.77995    0.47005    1.000
    Ow15     O        0.11675    0.97005    0.77995    1.000
    Ow15     O        0.63325    0.27995    0.27995    1.000
    Ow15     O        0.47005    0.63325    0.47005    1.000
    Ow15     O        0.97005    0.11675    0.77995    1.000
    Ow15     O        0.77995    0.13325    0.27995    1.000
    Ow15     O        0.97005    0.97005    0.63325    1.000
    Ow15     O        0.47005    0.77995    0.61675    1.000
    Ow15     O        0.77995    0.27995    0.13325    1.000
    Ow15     O        0.02995    0.36675    0.02995    1.000
    Ow15     O        0.22005    0.86675    0.72005    1.000
    Ow15     O        0.52995    0.38325    0.22005    1.000
    Ow15     O        0.88325    0.22005    0.02995    1.000
    Ow15     O        0.36675    0.72005    0.72005    1.000
    Ow15     O        0.38325    0.52995    0.22005    1.000
    Ow15     O        0.22005    0.72005    0.86675    1.000
    Ow15     O        0.02995    0.22005    0.88325    1.000
    Ow15     O        0.52995    0.52995    0.36675    1.000
    Ow15     O        0.38325    0.22005    0.52995    1.000
    Ow15     O        0.88325    0.02995    0.22005    1.000
    Ow15     O        0.52995    0.36675    0.52995    1.000
    Ow15     O        0.02995    0.88325    0.22005    1.000
    Ow15     O        0.02995    0.02995    0.36675    1.000
    Ow15     O        0.52995    0.22005    0.38325    1.000
    Ow15     O        0.97005    0.63325    0.97005    1.000
    Ow15     O        0.47005    0.61675    0.77995    1.000
    Ow15     O        0.11675    0.77995    0.97005    1.000
    Ow15     O        0.61675    0.47005    0.77995    1.000
    Ow15     O        0.97005    0.77995    0.11675    1.000
    Ow15     O        0.47005    0.47005    0.63325    1.000
    Ow15     O        0.63325    0.97005    0.97005    1.000
    Ow15     O        0.13325    0.77995    0.27995    1.000
    Ow15     O        0.77995    0.11675    0.97005    1.000
    Ow15     O        0.27995    0.63325    0.27995    1.000
    Ow15     O        0.77995    0.97005    0.11675    1.000
    Ow15     O        0.27995    0.77995    0.13325    1.000
    Ow15     O        0.22005    0.38325    0.52995    1.000
    Ow15     O        0.72005    0.36675    0.72005    1.000
    Ow15     O        0.86675    0.22005    0.72005    1.000
    Ow15     O        0.36675    0.52995    0.52995    1.000
    Ow15     O        0.72005    0.22005    0.86675    1.000
    Ow15     O        0.22005    0.52995    0.38325    1.000
    Ow15     O        0.36675    0.02995    0.02995    1.000
    Ow15     O        0.22005    0.88325    0.02995    1.000
    Ow15     O        0.22005    0.02995    0.88325    1.000
    Ow15     O        0.77995    0.61675    0.47005    1.000
    Ow15     O        0.63325    0.47005    0.47005    1.000
    Ow15     O        0.77995    0.47005    0.61675    1.000
    Ow15     O        0.13325    0.27995    0.77995    1.000
    Ow15     O        0.27995    0.13325    0.77995    1.000
    Ow15     O        0.27995    0.27995    0.63325    1.000
    Ow15     O        0.72005    0.86675    0.22005    1.000
    Ow15     O        0.86675    0.72005    0.22005    1.000
    Ow15     O        0.72005    0.72005    0.36675    1.000
    Ow16     O        0.59375    0.26948    0.88115    1.000
    Ow16     O        0.09375    0.48052    0.36885    1.000
    Ow16     O        0.65625    0.76948    0.86885    1.000
    Ow16     O        0.38115    0.15625    0.98052    1.000
    Ow16     O        0.88115    0.59375    0.26948    1.000
    Ow16     O        0.36885    0.09375    0.48052    1.000
    Ow16     O        0.86885    0.65625    0.76948    1.000
    Ow16     O        0.98052    0.38115    0.15625    1.000
    Ow16     O        0.26948    0.88115    0.59375    1.000
    Ow16     O        0.48052    0.36885    0.09375    1.000
    Ow16     O        0.76948    0.86885    0.65625    1.000
    Ow16     O        0.73052    0.40625    0.11885    1.000
    Ow16     O        0.01948    0.84375    0.61885    1.000
    Ow16     O        0.23052    0.34375    0.13115    1.000
    Ow16     O        0.51948    0.90625    0.63115    1.000
    Ow16     O        0.90625    0.63115    0.51948    1.000
    Ow16     O        0.34375    0.13115    0.23052    1.000
    Ow16     O        0.84375    0.61885    0.01948    1.000
    Ow16     O        0.40625    0.11885    0.73052    1.000
    Ow16     O        0.13115    0.23052    0.34375    1.000
    Ow16     O        0.63115    0.51948    0.90625    1.000
    Ow16     O        0.11885    0.73052    0.40625    1.000
    Ow16     O        0.61885    0.01948    0.84375    1.000
    Ow16     O        0.84375    0.01948    0.61885    1.000
    Ow16     O        0.40625    0.73052    0.11885    1.000
    Ow16     O        0.90625    0.51948    0.63115    1.000
    Ow16     O        0.34375    0.23052    0.13115    1.000
    Ow16     O        0.61885    0.84375    0.01948    1.000
    Ow16     O        0.11885    0.40625    0.73052    1.000
    Ow16     O        0.63115    0.90625    0.51948    1.000
    Ow16     O        0.13115    0.34375    0.23052    1.000
    Ow16     O        0.01948    0.61885    0.84375    1.000
    Ow16     O        0.73052    0.11885    0.40625    1.000
    Ow16     O        0.51948    0.63115    0.90625    1.000
    Ow16     O        0.23052    0.13115    0.34375    1.000
    Ow16     O        0.26948    0.59375    0.88115    1.000
    Ow16     O        0.98052    0.15625    0.38115    1.000
    Ow16     O        0.76948    0.65625    0.86885    1.000
    Ow16     O        0.48052    0.09375    0.36885    1.000
    Ow16     O        0.09375    0.36885    0.48052    1.000
    Ow16     O        0.65625    0.86885    0.76948    1.000
    Ow16     O        0.15625    0.38115    0.98052    1.000
    Ow16     O        0.59375    0.88115    0.26948    1.000
    Ow16     O        0.86885    0.76948    0.65625    1.000
    Ow16     O        0.36885    0.48052    0.09375    1.000
    Ow16     O        0.88115    0.26948    0.59375    1.000
    Ow16     O        0.38115    0.98052    0.15625    1.000
    Ow16     O        0.15625    0.48052    0.88115    1.000
    Ow16     O        0.59375    0.76948    0.38115    1.000
    Ow16     O        0.09375    0.98052    0.86885    1.000
    Ow16     O        0.65625    0.26948    0.36885    1.000
    Ow16     O        0.38115    0.65625    0.48052    1.000
    Ow16     O        0.88115    0.09375    0.76948    1.000
    Ow16     O        0.36885    0.59375    0.98052    1.000
    Ow16     O        0.86885    0.15625    0.26948    1.000
    Ow16     O        0.98052    0.88115    0.65625    1.000
    Ow16     O        0.26948    0.38115    0.09375    1.000
    Ow16     O        0.48052    0.86885    0.59375    1.000
    Ow16     O        0.76948    0.36885    0.15625    1.000
    Ow16     O        0.73052    0.90625    0.61885    1.000
    Ow16     O        0.01948    0.34375    0.11885    1.000
    Ow16     O        0.23052    0.84375    0.63115    1.000
    Ow16     O        0.51948    0.40625    0.13115    1.000
    Ow16     O        0.90625    0.13115    0.01948    1.000
    Ow16     O        0.34375    0.63115    0.73052    1.000
    Ow16     O        0.84375    0.11885    0.51948    1.000
    Ow16     O        0.40625    0.61885    0.23052    1.000
    Ow16     O        0.13115    0.73052    0.84375    1.000
    Ow16     O        0.63115    0.01948    0.40625    1.000
    Ow16     O        0.11885    0.23052    0.90625    1.000
    Ow16     O        0.61885    0.51948    0.34375    1.000
    Ow16     O        0.84375    0.51948    0.11885    1.000
    Ow16     O        0.40625    0.23052    0.61885    1.000
    Ow16     O        0.90625    0.01948    0.13115    1.000
    Ow16     O        0.34375    0.73052    0.63115    1.000
    Ow16     O        0.61885    0.34375    0.51948    1.000
    Ow16     O        0.11885    0.90625    0.23052    1.000
    Ow16     O        0.63115    0.40625    0.01948    1.000
    Ow16     O        0.13115    0.84375    0.73052    1.000
    Ow16     O        0.01948    0.11885    0.34375    1.000
    Ow16     O        0.73052    0.61885    0.90625    1.000
    Ow16     O        0.51948    0.13115    0.40625    1.000
    Ow16     O        0.23052    0.63115    0.84375    1.000
    Ow16     O        0.26948    0.09375    0.38115    1.000
    Ow16     O        0.98052    0.65625    0.88115    1.000
    Ow16     O        0.76948    0.15625    0.36885    1.000
    Ow16     O        0.48052    0.59375    0.86885    1.000
    Ow16     O        0.09375    0.86885    0.98052    1.000
    Ow16     O        0.65625    0.36885    0.26948    1.000
    Ow16     O        0.15625    0.88115    0.48052    1.000
    Ow16     O        0.59375    0.38115    0.76948    1.000
    Ow16     O        0.86885    0.26948    0.15625    1.000
    Ow16     O        0.36885    0.98052    0.59375    1.000
    Ow16     O        0.88115    0.76948    0.09375    1.000
    Ow16     O        0.38115    0.48052    0.65625    1.000
    Ow16     O        0.65625    0.98052    0.88115    1.000
    Ow16     O        0.09375    0.26948    0.38115    1.000
    Ow16     O        0.59375    0.48052    0.86885    1.000
    Ow16     O        0.15625    0.76948    0.36885    1.000
    Ow16     O        0.88115    0.15625    0.48052    1.000
    Ow16     O        0.38115    0.59375    0.76948    1.000
    Ow16     O        0.86885    0.09375    0.98052    1.000
    Ow16     O        0.36885    0.65625    0.26948    1.000
    Ow16     O        0.48052    0.38115    0.65625    1.000
    Ow16     O        0.76948    0.88115    0.09375    1.000
    Ow16     O        0.98052    0.36885    0.59375    1.000
    Ow16     O        0.26948    0.86885    0.15625    1.000
    Ow16     O        0.23052    0.40625    0.61885    1.000
    Ow16     O        0.51948    0.84375    0.11885    1.000
    Ow16     O        0.73052    0.34375    0.63115    1.000
    Ow16     O        0.01948    0.90625    0.13115    1.000
    Ow16     O        0.40625    0.63115    0.01948    1.000
    Ow16     O        0.84375    0.13115    0.73052    1.000
    Ow16     O        0.34375    0.61885    0.51948    1.000
    Ow16     O        0.90625    0.11885    0.23052    1.000
    Ow16     O        0.63115    0.23052    0.84375    1.000
    Ow16     O        0.13115    0.51948    0.40625    1.000
    Ow16     O        0.61885    0.73052    0.90625    1.000
    Ow16     O        0.11885    0.01948    0.34375    1.000
    Ow16     O        0.34375    0.01948    0.11885    1.000
    Ow16     O        0.90625    0.73052    0.61885    1.000
    Ow16     O        0.40625    0.51948    0.13115    1.000
    Ow16     O        0.84375    0.23052    0.63115    1.000
    Ow16     O        0.11885    0.84375    0.51948    1.000
    Ow16     O        0.61885    0.40625    0.23052    1.000
    Ow16     O        0.13115    0.90625    0.01948    1.000
    Ow16     O        0.63115    0.34375    0.73052    1.000
    Ow16     O        0.51948    0.61885    0.34375    1.000
    Ow16     O        0.23052    0.11885    0.90625    1.000
    Ow16     O        0.01948    0.63115    0.40625    1.000
    Ow16     O        0.73052    0.13115    0.84375    1.000
    Ow16     O        0.76948    0.59375    0.38115    1.000
    Ow16     O        0.48052    0.15625    0.88115    1.000
    Ow16     O        0.26948    0.65625    0.36885    1.000
    Ow16     O        0.98052    0.09375    0.86885    1.000
    Ow16     O        0.59375    0.36885    0.98052    1.000
    Ow16     O        0.15625    0.86885    0.26948    1.000
    Ow16     O        0.65625    0.38115    0.48052    1.000
    Ow16     O        0.09375    0.88115    0.76948    1.000
    Ow16     O        0.36885    0.76948    0.15625    1.000
    Ow16     O        0.86885    0.48052    0.59375    1.000
    Ow16     O        0.38115    0.26948    0.09375    1.000
    Ow16     O        0.88115    0.98052    0.65625    1.000
    Ow16     O        0.65625    0.48052    0.38115    1.000
    Ow16     O        0.09375    0.76948    0.88115    1.000
    Ow16     O        0.59375    0.98052    0.36885    1.000
    Ow16     O        0.15625    0.26948    0.86885    1.000
    Ow16     O        0.88115    0.65625    0.98052    1.000
    Ow16     O        0.38115    0.09375    0.26948    1.000
    Ow16     O        0.86885    0.59375    0.48052    1.000
    Ow16     O        0.36885    0.15625    0.76948    1.000
    Ow16     O        0.48052    0.88115    0.15625    1.000
    Ow16     O        0.76948    0.38115    0.59375    1.000
    Ow16     O        0.98052    0.86885    0.09375    1.000
    Ow16     O        0.26948    0.36885    0.65625    1.000
    Ow16     O        0.23052    0.90625    0.11885    1.000
    Ow16     O        0.51948    0.34375    0.61885    1.000
    Ow16     O        0.73052    0.84375    0.13115    1.000
    Ow16     O        0.01948    0.40625    0.63115    1.000
    Ow16     O        0.40625    0.13115    0.51948    1.000
    Ow16     O        0.84375    0.63115    0.23052    1.000
    Ow16     O        0.34375    0.11885    0.01948    1.000
    Ow16     O        0.90625    0.61885    0.73052    1.000
    Ow16     O        0.63115    0.73052    0.34375    1.000
    Ow16     O        0.13115    0.01948    0.90625    1.000
    Ow16     O        0.61885    0.23052    0.40625    1.000
    Ow16     O        0.11885    0.51948    0.84375    1.000
    Ow16     O        0.34375    0.51948    0.61885    1.000
    Ow16     O        0.90625    0.23052    0.11885    1.000
    Ow16     O        0.40625    0.01948    0.63115    1.000
    Ow16     O        0.84375    0.73052    0.13115    1.000
    Ow16     O        0.11885    0.34375    0.01948    1.000
    Ow16     O        0.61885    0.90625    0.73052    1.000
    Ow16     O        0.13115    0.40625    0.51948    1.000
    Ow16     O        0.63115    0.84375    0.23052    1.000
    Ow16     O        0.51948    0.11885    0.84375    1.000
    Ow16     O        0.23052    0.61885    0.40625    1.000
    Ow16     O        0.01948    0.13115    0.90625    1.000
    Ow16     O        0.73052    0.63115    0.34375    1.000
    Ow16     O        0.76948    0.09375    0.88115    1.000
    Ow16     O        0.48052    0.65625    0.38115    1.000
    Ow16     O        0.26948    0.15625    0.86885    1.000
    Ow16     O        0.98052    0.59375    0.36885    1.000
    Ow16     O        0.59375    0.86885    0.48052    1.000
    Ow16     O        0.15625    0.36885    0.76948    1.000
    Ow16     O        0.65625    0.88115    0.98052    1.000
    Ow16     O        0.09375    0.38115    0.26948    1.000
    Ow16     O        0.36885    0.26948    0.65625    1.000
    Ow16     O        0.86885    0.98052    0.09375    1.000
    Ow16     O        0.38115    0.76948    0.59375    1.000
    Ow16     O        0.88115    0.48052    0.15625    1.000
    Ow17     O        0.47331    0.97331    0.27669    1.000
    Ow17     O        0.97331    0.77669    0.97331    1.000
    Ow17     O        0.77669    0.47331    0.47331    1.000
    Ow17     O        0.77669    0.27669    0.27669    1.000
    Ow17     O        0.27669    0.47331    0.97331    1.000
    Ow17     O        0.97331    0.97331    0.77669    1.000
    Ow17     O        0.47331    0.77669    0.47331    1.000
    Ow17     O        0.27669    0.77669    0.27669    1.000
    Ow17     O        0.97331    0.27669    0.47331    1.000
    Ow17     O        0.77669    0.97331    0.97331    1.000
    Ow17     O        0.47331    0.47331    0.77669    1.000
    Ow17     O        0.02669    0.52669    0.72331    1.000
    Ow17     O        0.72331    0.72331    0.22331    1.000
    Ow17     O        0.52669    0.22331    0.52669    1.000
    Ow17     O        0.22331    0.02669    0.02669    1.000
    Ow17     O        0.02669    0.02669    0.22331    1.000
    Ow17     O        0.22331    0.52669    0.52669    1.000
    Ow17     O        0.72331    0.22331    0.72331    1.000
    Ow17     O        0.52669    0.72331    0.02669    1.000
    Ow17     O        0.52669    0.52669    0.22331    1.000
    Ow17     O        0.02669    0.22331    0.02669    1.000
    Ow17     O        0.72331    0.02669    0.52669    1.000
    Ow17     O        0.22331    0.72331    0.72331    1.000
    Ow17     O        0.52669    0.02669    0.72331    1.000
    Ow17     O        0.72331    0.52669    0.02669    1.000
    Ow17     O        0.02669    0.72331    0.52669    1.000
    Ow17     O        0.97331    0.47331    0.27669    1.000
    Ow17     O        0.47331    0.27669    0.97331    1.000
    Ow17     O        0.27669    0.97331    0.47331    1.000
    Ow17     O        0.77669    0.77669    0.77669    1.000
    Ow17     O        0.22331    0.22331    0.22331    1.000
    Ow18     O        0.84712    0.34712    0.40288    1.000
    Ow18     O        0.34712    0.40288    0.84712    1.000
    Ow18     O        0.40288    0.84712    0.34712    1.000
    Ow18     O        0.65288    0.15288    0.59712    1.000
    Ow18     O        0.09712    0.09712    0.09712    1.000
    Ow18     O        0.15288    0.59712    0.65288    1.000
    Ow18     O        0.59712    0.65288    0.15288    1.000
    Ow18     O        0.15288    0.65288    0.59712    1.000
    Ow18     O        0.65288    0.59712    0.15288    1.000
    Ow18     O        0.59712    0.15288    0.65288    1.000
    Ow18     O        0.34712    0.84712    0.40288    1.000
    Ow18     O        0.84712    0.40288    0.34712    1.000
    Ow18     O        0.40288    0.34712    0.84712    1.000
    Ow18     O        0.90288    0.40288    0.40288    1.000
    Ow18     O        0.84712    0.84712    0.90288    1.000
    Ow18     O        0.34712    0.90288    0.34712    1.000
    Ow18     O        0.65288    0.65288    0.09712    1.000
    Ow18     O        0.09712    0.59712    0.59712    1.000
    Ow18     O        0.15288    0.09712    0.15288    1.000
    Ow18     O        0.15288    0.15288    0.09712    1.000
    Ow18     O        0.65288    0.09712    0.65288    1.000
    Ow18     O        0.34712    0.34712    0.90288    1.000
    Ow18     O        0.84712    0.90288    0.84712    1.000
    Ow18     O        0.40288    0.90288    0.40288    1.000
    Ow18     O        0.90288    0.84712    0.84712    1.000
    Ow18     O        0.59712    0.09712    0.59712    1.000
    Ow18     O        0.09712    0.65288    0.65288    1.000
    Ow18     O        0.09712    0.15288    0.15288    1.000
    Ow18     O        0.90288    0.34712    0.34712    1.000
    Ow18     O        0.40288    0.40288    0.90288    1.000
    Ow18     O        0.59712    0.59712    0.09712    1.000
    Ow19     O        0.79528    0.37808    0.29528    1.000
    Ow19     O        0.29528    0.37192    0.95472    1.000
    Ow19     O        0.45472    0.87808    0.45472    1.000
    Ow19     O        0.79528    0.95472    0.87192    1.000
    Ow19     O        0.29528    0.79528    0.37808    1.000
    Ow19     O        0.95472    0.29528    0.37192    1.000
    Ow19     O        0.45472    0.45472    0.87808    1.000
    Ow19     O        0.87192    0.79528    0.95472    1.000
    Ow19     O        0.37808    0.29528    0.79528    1.000
    Ow19     O        0.37192    0.95472    0.29528    1.000
    Ow19     O        0.87808    0.45472    0.45472    1.000
    Ow19     O        0.62192    0.20472    0.70472    1.000
    Ow19     O        0.12808    0.04528    0.20472    1.000
    Ow19     O        0.12192    0.54528    0.54528    1.000
    Ow19     O        0.62808    0.70472    0.04528    1.000
    Ow19     O        0.70472    0.04528    0.62808    1.000
    Ow19     O        0.54528    0.54528    0.12192    1.000
    Ow19     O        0.04528    0.20472    0.12808    1.000
    Ow19     O        0.20472    0.70472    0.62192    1.000
    Ow19     O        0.54528    0.12192    0.54528    1.000
    Ow19     O        0.04528    0.62808    0.70472    1.000
    Ow19     O        0.70472    0.62192    0.20472    1.000
    Ow19     O        0.20472    0.12808    0.04528    1.000
    Ow19     O        0.04528    0.12808    0.20472    1.000
    Ow19     O        0.20472    0.62192    0.70472    1.000
    Ow19     O        0.70472    0.62808    0.04528    1.000
    Ow19     O        0.20472    0.04528    0.12808    1.000
    Ow19     O        0.70472    0.20472    0.62192    1.000
    Ow19     O        0.04528    0.70472    0.62808    1.000
    Ow19     O        0.12808    0.20472    0.04528    1.000
    Ow19     O        0.62192    0.70472    0.20472    1.000
    Ow19     O        0.62808    0.04528    0.70472    1.000
    Ow19     O        0.37808    0.79528    0.29528    1.000
    Ow19     O        0.87192    0.95472    0.79528    1.000
    Ow19     O        0.37192    0.29528    0.95472    1.000
    Ow19     O        0.29528    0.95472    0.37192    1.000
    Ow19     O        0.95472    0.79528    0.87192    1.000
    Ow19     O        0.79528    0.29528    0.37808    1.000
    Ow19     O        0.95472    0.37192    0.29528    1.000
    Ow19     O        0.29528    0.37808    0.79528    1.000
    Ow19     O        0.79528    0.87192    0.95472    1.000
    Ow19     O        0.79528    0.87808    0.79528    1.000
    Ow19     O        0.29528    0.87192    0.45472    1.000
    Ow19     O        0.45472    0.37808    0.95472    1.000
    Ow19     O        0.79528    0.45472    0.37192    1.000
    Ow19     O        0.29528    0.29528    0.87808    1.000
    Ow19     O        0.45472    0.95472    0.37808    1.000
    Ow19     O        0.87192    0.29528    0.45472    1.000
    Ow19     O        0.37192    0.45472    0.79528    1.000
    Ow19     O        0.87808    0.95472    0.95472    1.000
    Ow19     O        0.12808    0.54528    0.70472    1.000
    Ow19     O        0.12192    0.04528    0.04528    1.000
    Ow19     O        0.62808    0.20472    0.54528    1.000
    Ow19     O        0.70472    0.54528    0.12808    1.000
    Ow19     O        0.54528    0.04528    0.62192    1.000
    Ow19     O        0.20472    0.20472    0.12192    1.000
    Ow19     O        0.54528    0.62192    0.04528    1.000
    Ow19     O        0.70472    0.12192    0.70472    1.000
    Ow19     O        0.20472    0.62808    0.54528    1.000
    Ow19     O        0.20472    0.12192    0.20472    1.000
    Ow19     O        0.70472    0.12808    0.54528    1.000
    Ow19     O        0.20472    0.54528    0.62808    1.000
    Ow19     O        0.70472    0.70472    0.12192    1.000
    Ow19     O        0.12808    0.70472    0.54528    1.000
    Ow19     O        0.62808    0.54528    0.20472    1.000
    Ow19     O        0.87192    0.45472    0.29528    1.000
    Ow19     O        0.37192    0.79528    0.45472    1.000
    Ow19     O        0.29528    0.45472    0.87192    1.000
    Ow19     O        0.79528    0.79528    0.87808    1.000
    Ow19     O        0.29528    0.87808    0.29528    1.000
    Ow19     O        0.79528    0.37192    0.45472    1.000
    Ow19     O        0.45472    0.87192    0.29528    1.000
    Ow19     O        0.95472    0.87808    0.95472    1.000
    Ow19     O        0.45472    0.29528    0.87192    1.000
    Ow19     O        0.95472    0.45472    0.37808    1.000
    Ow19     O        0.87808    0.29528    0.29528    1.000
    Ow19     O        0.37808    0.45472    0.95472    1.000
    Ow19     O        0.12192    0.20472    0.20472    1.000
    Ow19     O        0.62192    0.54528    0.04528    1.000
    Ow19     O        0.04528    0.54528    0.62192    1.000
    Ow19     O        0.54528    0.20472    0.62808    1.000
    Ow19     O        0.04528    0.12192    0.04528    1.000
    Ow19     O        0.54528    0.62808    0.20472    1.000
    Ow19     O        0.54528    0.12808    0.70472    1.000
    Ow19     O        0.54528    0.70472    0.12808    1.000
    Ow19     O        0.12192    0.70472    0.70472    1.000
    Ow19     O        0.87808    0.79528    0.79528    1.000
    Ow19     O        0.45472    0.79528    0.37192    1.000
    Ow19     O        0.45472    0.37192    0.79528    1.000
    Ow19     O        0.95472    0.37808    0.45472    1.000
    Ow19     O        0.95472    0.95472    0.87808    1.000
    Ow19     O        0.37808    0.95472    0.45472    1.000
    Ow19     O        0.62192    0.04528    0.54528    1.000
    Ow19     O        0.04528    0.04528    0.12192    1.000
    Ow19     O        0.04528    0.62192    0.54528    1.000
    Ow20     O        0.59078    0.89022    0.43520    1.000
    Ow20     O        0.09078    0.85978    0.81480    1.000
    Ow20     O        0.65922    0.39022    0.31480    1.000
    Ow20     O        0.93520    0.15922    0.35978    1.000
    Ow20     O        0.43520    0.59078    0.89022    1.000
    Ow20     O        0.81480    0.09078    0.85978    1.000
    Ow20     O        0.31480    0.65922    0.39022    1.000
    Ow20     O        0.35978    0.93520    0.15922    1.000
    Ow20     O        0.89022    0.43520    0.59078    1.000
    Ow20     O        0.85978    0.81480    0.09078    1.000
    Ow20     O        0.39022    0.31480    0.65922    1.000
    Ow20     O        0.10978    0.40922    0.56480    1.000
    Ow20     O        0.64022    0.84078    0.06480    1.000
    Ow20     O        0.60978    0.34078    0.68520    1.000
    Ow20     O        0.14022    0.90922    0.18520    1.000
    Ow20     O        0.90922    0.18520    0.14022    1.000
    Ow20     O        0.34078    0.68520    0.60978    1.000
    Ow20     O        0.84078    0.06480    0.64022    1.000
    Ow20     O        0.40922    0.56480    0.10978    1.000
    Ow20     O        0.68520    0.60978    0.34078    1.000
    Ow20     O        0.18520    0.14022    0.90922    1.000
    Ow20     O        0.56480    0.10978    0.40922    1.000
    Ow20     O        0.06480    0.64022    0.84078    1.000
    Ow20     O        0.84078    0.64022    0.06480    1.000
    Ow20     O        0.40922    0.10978    0.56480    1.000
    Ow20     O        0.90922    0.14022    0.18520    1.000
    Ow20     O        0.34078    0.60978    0.68520    1.000
    Ow20     O        0.06480    0.84078    0.64022    1.000
    Ow20     O        0.56480    0.40922    0.10978    1.000
    Ow20     O        0.18520    0.90922    0.14022    1.000
    Ow20     O        0.68520    0.34078    0.60978    1.000
    Ow20     O        0.64022    0.06480    0.84078    1.000
    Ow20     O        0.10978    0.56480    0.40922    1.000
    Ow20     O        0.14022    0.18520    0.90922    1.000
    Ow20     O        0.60978    0.68520    0.34078    1.000
    Ow20     O        0.89022    0.59078    0.43520    1.000
    Ow20     O        0.35978    0.15922    0.93520    1.000
    Ow20     O        0.39022    0.65922    0.31480    1.000
    Ow20     O        0.85978    0.09078    0.81480    1.000
    Ow20     O        0.09078    0.81480    0.85978    1.000
    Ow20     O        0.65922    0.31480    0.39022    1.000
    Ow20     O        0.15922    0.93520    0.35978    1.000
    Ow20     O        0.59078    0.43520    0.89022    1.000
    Ow20     O        0.31480    0.39022    0.65922    1.000
    Ow20     O        0.81480    0.85978    0.09078    1.000
    Ow20     O        0.43520    0.89022    0.59078    1.000
    Ow20     O        0.93520    0.35978    0.15922    1.000
    Ow20     O        0.15922    0.85978    0.43520    1.000
    Ow20     O        0.59078    0.39022    0.93520    1.000
    Ow20     O        0.09078    0.35978    0.31480    1.000
    Ow20     O        0.65922    0.89022    0.81480    1.000
    Ow20     O        0.93520    0.65922    0.85978    1.000
    Ow20     O        0.43520    0.09078    0.39022    1.000
    Ow20     O        0.81480    0.59078    0.35978    1.000
    Ow20     O        0.31480    0.15922    0.89022    1.000
    Ow20     O        0.35978    0.43520    0.65922    1.000
    Ow20     O        0.89022    0.93520    0.09078    1.000
    Ow20     O        0.85978    0.31480    0.59078    1.000
    Ow20     O        0.39022    0.81480    0.15922    1.000
    Ow20     O        0.10978    0.90922    0.06480    1.000
    Ow20     O        0.64022    0.34078    0.56480    1.000
    Ow20     O        0.60978    0.84078    0.18520    1.000
    Ow20     O        0.14022    0.40922    0.68520    1.000
    Ow20     O        0.90922    0.68520    0.64022    1.000
    Ow20     O        0.34078    0.18520    0.10978    1.000
    Ow20     O        0.84078    0.56480    0.14022    1.000
    Ow20     O        0.40922    0.06480    0.60978    1.000
    Ow20     O        0.68520    0.10978    0.84078    1.000
    Ow20     O        0.18520    0.64022    0.40922    1.000
    Ow20     O        0.56480    0.60978    0.90922    1.000
    Ow20     O        0.06480    0.14022    0.34078    1.000
    Ow20     O        0.84078    0.14022    0.56480    1.000
    Ow20     O        0.40922    0.60978    0.06480    1.000
    Ow20     O        0.90922    0.64022    0.68520    1.000
    Ow20     O        0.34078    0.10978    0.18520    1.000
    Ow20     O        0.06480    0.34078    0.14022    1.000
    Ow20     O        0.56480    0.90922    0.60978    1.000
    Ow20     O        0.18520    0.40922    0.64022    1.000
    Ow20     O        0.68520    0.84078    0.10978    1.000
    Ow20     O        0.64022    0.56480    0.34078    1.000
    Ow20     O        0.10978    0.06480    0.90922    1.000
    Ow20     O        0.14022    0.68520    0.40922    1.000
    Ow20     O        0.60978    0.18520    0.84078    1.000
    Ow20     O        0.89022    0.09078    0.93520    1.000
    Ow20     O        0.35978    0.65922    0.43520    1.000
    Ow20     O        0.39022    0.15922    0.81480    1.000
    Ow20     O        0.85978    0.59078    0.31480    1.000
    Ow20     O        0.09078    0.31480    0.35978    1.000
    Ow20     O        0.65922    0.81480    0.89022    1.000
    Ow20     O        0.15922    0.43520    0.85978    1.000
    Ow20     O        0.59078    0.93520    0.39022    1.000
    Ow20     O        0.31480    0.89022    0.15922    1.000
    Ow20     O        0.81480    0.35978    0.59078    1.000
    Ow20     O        0.43520    0.39022    0.09078    1.000
    Ow20     O        0.93520    0.85978    0.65922    1.000
    Ow20     O        0.65922    0.35978    0.43520    1.000
    Ow20     O        0.09078    0.89022    0.93520    1.000
    Ow20     O        0.59078    0.85978    0.31480    1.000
    Ow20     O        0.15922    0.39022    0.81480    1.000
    Ow20     O        0.43520    0.15922    0.85978    1.000
    Ow20     O        0.93520    0.59078    0.39022    1.000
    Ow20     O        0.31480    0.09078    0.35978    1.000
    Ow20     O        0.81480    0.65922    0.89022    1.000
    Ow20     O        0.85978    0.93520    0.65922    1.000
    Ow20     O        0.39022    0.43520    0.09078    1.000
    Ow20     O        0.35978    0.81480    0.59078    1.000
    Ow20     O        0.89022    0.31480    0.15922    1.000
    Ow20     O        0.60978    0.40922    0.06480    1.000
    Ow20     O        0.14022    0.84078    0.56480    1.000
    Ow20     O        0.10978    0.34078    0.18520    1.000
    Ow20     O        0.64022    0.90922    0.68520    1.000
    Ow20     O        0.40922    0.18520    0.64022    1.000
    Ow20     O        0.84078    0.68520    0.10978    1.000
    Ow20     O        0.34078    0.06480    0.14022    1.000
    Ow20     O        0.90922    0.56480    0.60978    1.000
    Ow20     O        0.18520    0.60978    0.84078    1.000
    Ow20     O        0.68520    0.14022    0.40922    1.000
    Ow20     O        0.06480    0.10978    0.90922    1.000
    Ow20     O        0.56480    0.64022    0.34078    1.000
    Ow20     O        0.34078    0.64022    0.56480    1.000
    Ow20     O        0.90922    0.10978    0.06480    1.000
    Ow20     O        0.40922    0.14022    0.68520    1.000
    Ow20     O        0.84078    0.60978    0.18520    1.000
    Ow20     O        0.56480    0.84078    0.14022    1.000
    Ow20     O        0.06480    0.40922    0.60978    1.000
    Ow20     O        0.68520    0.90922    0.64022    1.000
    Ow20     O        0.18520    0.34078    0.10978    1.000
    Ow20     O        0.14022    0.06480    0.34078    1.000
    Ow20     O        0.60978    0.56480    0.90922    1.000
    Ow20     O        0.64022    0.18520    0.40922    1.000
    Ow20     O        0.10978    0.68520    0.84078    1.000
    Ow20     O        0.39022    0.59078    0.93520    1.000
    Ow20     O        0.85978    0.15922    0.43520    1.000
    Ow20     O        0.89022    0.65922    0.81480    1.000
    Ow20     O        0.35978    0.09078    0.31480    1.000
    Ow20     O        0.59078    0.81480    0.35978    1.000
    Ow20     O        0.15922    0.31480    0.89022    1.000
    Ow20     O        0.65922    0.93520    0.85978    1.000
    Ow20     O        0.09078    0.43520    0.39022    1.000
    Ow20     O        0.81480    0.39022    0.15922    1.000
    Ow20     O        0.31480    0.85978    0.59078    1.000
    Ow20     O        0.93520    0.89022    0.09078    1.000
    Ow20     O        0.43520    0.35978    0.65922    1.000
    Ow20     O        0.65922    0.85978    0.93520    1.000
    Ow20     O        0.09078    0.39022    0.43520    1.000
    Ow20     O        0.59078    0.35978    0.81480    1.000
    Ow20     O        0.15922    0.89022    0.31480    1.000
    Ow20     O        0.43520    0.65922    0.35978    1.000
    Ow20     O        0.93520    0.09078    0.89022    1.000
    Ow20     O        0.31480    0.59078    0.85978    1.000
    Ow20     O        0.81480    0.15922    0.39022    1.000
    Ow20     O        0.85978    0.43520    0.15922    1.000
    Ow20     O        0.39022    0.93520    0.59078    1.000
    Ow20     O        0.35978    0.31480    0.09078    1.000
    Ow20     O        0.89022    0.81480    0.65922    1.000
    Ow20     O        0.60978    0.90922    0.56480    1.000
    Ow20     O        0.14022    0.34078    0.06480    1.000
    Ow20     O        0.10978    0.84078    0.68520    1.000
    Ow20     O        0.64022    0.40922    0.18520    1.000
    Ow20     O        0.40922    0.68520    0.14022    1.000
    Ow20     O        0.84078    0.18520    0.60978    1.000
    Ow20     O        0.34078    0.56480    0.64022    1.000
    Ow20     O        0.90922    0.06480    0.10978    1.000
    Ow20     O        0.18520    0.10978    0.34078    1.000
    Ow20     O        0.68520    0.64022    0.90922    1.000
    Ow20     O        0.06480    0.60978    0.40922    1.000
    Ow20     O        0.56480    0.14022    0.84078    1.000
    Ow20     O        0.34078    0.14022    0.06480    1.000
    Ow20     O        0.90922    0.60978    0.56480    1.000
    Ow20     O        0.40922    0.64022    0.18520    1.000
    Ow20     O        0.84078    0.10978    0.68520    1.000
    Ow20     O        0.56480    0.34078    0.64022    1.000
    Ow20     O        0.06480    0.90922    0.10978    1.000
    Ow20     O        0.68520    0.40922    0.14022    1.000
    Ow20     O        0.18520    0.84078    0.60978    1.000
    Ow20     O        0.14022    0.56480    0.84078    1.000
    Ow20     O        0.60978    0.06480    0.40922    1.000
    Ow20     O        0.64022    0.68520    0.90922    1.000
    Ow20     O        0.10978    0.18520    0.34078    1.000
    Ow20     O        0.39022    0.09078    0.43520    1.000
    Ow20     O        0.85978    0.65922    0.93520    1.000
    Ow20     O        0.89022    0.15922    0.31480    1.000
    Ow20     O        0.35978    0.59078    0.81480    1.000
    Ow20     O        0.59078    0.31480    0.85978    1.000
    Ow20     O        0.15922    0.81480    0.39022    1.000
    Ow20     O        0.65922    0.43520    0.35978    1.000
    Ow20     O        0.09078    0.93520    0.89022    1.000
    Ow20     O        0.81480    0.89022    0.65922    1.000
    Ow20     O        0.31480    0.35978    0.09078    1.000
    Ow20     O        0.93520    0.39022    0.59078    1.000
    Ow20     O        0.43520    0.85978    0.15922    1.000
    Ow21     O        0.56509    0.22387    0.97574    1.000
    Ow21     O        0.06509    0.52613    0.27426    1.000
    Ow21     O        0.68491    0.72387    0.77426    1.000
    Ow21     O        0.47574    0.18491    0.02613    1.000
    Ow21     O        0.97574    0.56509    0.22387    1.000
    Ow21     O        0.27426    0.06509    0.52613    1.000
    Ow21     O        0.77426    0.68491    0.72387    1.000
    Ow21     O        0.02613    0.47574    0.18491    1.000
    Ow21     O        0.22387    0.97574    0.56509    1.000
    Ow21     O        0.52613    0.27426    0.06509    1.000
    Ow21     O        0.72387    0.77426    0.68491    1.000
    Ow21     O        0.77613    0.43491    0.02426    1.000
    Ow21     O        0.97387    0.81509    0.52426    1.000
    Ow21     O        0.27613    0.31509    0.22574    1.000
    Ow21     O        0.47387    0.93491    0.72574    1.000
    Ow21     O        0.93491    0.72574    0.47387    1.000
    Ow21     O        0.31509    0.22574    0.27613    1.000
    Ow21     O        0.81509    0.52426    0.97387    1.000
    Ow21     O        0.43491    0.02426    0.77613    1.000
    Ow21     O        0.22574    0.27613    0.31509    1.000
    Ow21     O        0.72574    0.47387    0.93491    1.000
    Ow21     O        0.02426    0.77613    0.43491    1.000
    Ow21     O        0.52426    0.97387    0.81509    1.000
    Ow21     O        0.81509    0.97387    0.52426    1.000
    Ow21     O        0.43491    0.77613    0.02426    1.000
    Ow21     O        0.93491    0.47387    0.72574    1.000
    Ow21     O        0.31509    0.27613    0.22574    1.000
    Ow21     O        0.52426    0.81509    0.97387    1.000
    Ow21     O        0.02426    0.43491    0.77613    1.000
    Ow21     O        0.72574    0.93491    0.47387    1.000
    Ow21     O        0.22574    0.31509    0.27613    1.000
    Ow21     O        0.97387    0.52426    0.81509    1.000
    Ow21     O        0.77613    0.02426    0.43491    1.000
    Ow21     O        0.47387    0.72574    0.93491    1.000
    Ow21     O        0.27613    0.22574    0.31509    1.000
    Ow21     O        0.22387    0.56509    0.97574    1.000
    Ow21     O        0.02613    0.18491    0.47574    1.000
    Ow21     O        0.72387    0.68491    0.77426    1.000
    Ow21     O        0.52613    0.06509    0.27426    1.000
    Ow21     O        0.06509    0.27426    0.52613    1.000
    Ow21     O        0.68491    0.77426    0.72387    1.000
    Ow21     O        0.18491    0.47574    0.02613    1.000
    Ow21     O        0.56509    0.97574    0.22387    1.000
    Ow21     O        0.77426    0.72387    0.68491    1.000
    Ow21     O        0.27426    0.52613    0.06509    1.000
    Ow21     O        0.97574    0.22387    0.56509    1.000
    Ow21     O        0.47574    0.02613    0.18491    1.000
    Ow21     O        0.18491    0.52613    0.97574    1.000
    Ow21     O        0.56509    0.72387    0.47574    1.000
    Ow21     O        0.06509    0.02613    0.77426    1.000
    Ow21     O        0.68491    0.22387    0.27426    1.000
    Ow21     O        0.47574    0.68491    0.52613    1.000
    Ow21     O        0.97574    0.06509    0.72387    1.000
    Ow21     O        0.27426    0.56509    0.02613    1.000
    Ow21     O        0.77426    0.18491    0.22387    1.000
    Ow21     O        0.02613    0.97574    0.68491    1.000
    Ow21     O        0.22387    0.47574    0.06509    1.000
    Ow21     O        0.52613    0.77426    0.56509    1.000
    Ow21     O        0.72387    0.27426    0.18491    1.000
    Ow21     O        0.77613    0.93491    0.52426    1.000
    Ow21     O        0.97387    0.31509    0.02426    1.000
    Ow21     O        0.27613    0.81509    0.72574    1.000
    Ow21     O        0.47387    0.43491    0.22574    1.000
    Ow21     O        0.93491    0.22574    0.97387    1.000
    Ow21     O        0.31509    0.72574    0.77613    1.000
    Ow21     O        0.81509    0.02426    0.47387    1.000
    Ow21     O        0.43491    0.52426    0.27613    1.000
    Ow21     O        0.22574    0.77613    0.81509    1.000
    Ow21     O        0.72574    0.97387    0.43491    1.000
    Ow21     O        0.02426    0.27613    0.93491    1.000
    Ow21     O        0.52426    0.47387    0.31509    1.000
    Ow21     O        0.81509    0.47387    0.02426    1.000
    Ow21     O        0.43491    0.27613    0.52426    1.000
    Ow21     O        0.93491    0.97387    0.22574    1.000
    Ow21     O        0.31509    0.77613    0.72574    1.000
    Ow21     O        0.52426    0.31509    0.47387    1.000
    Ow21     O        0.02426    0.93491    0.27613    1.000
    Ow21     O        0.72574    0.43491    0.97387    1.000
    Ow21     O        0.22574    0.81509    0.77613    1.000
    Ow21     O        0.97387    0.02426    0.31509    1.000
    Ow21     O        0.77613    0.52426    0.93491    1.000
    Ow21     O        0.47387    0.22574    0.43491    1.000
    Ow21     O        0.27613    0.72574    0.81509    1.000
    Ow21     O        0.22387    0.06509    0.47574    1.000
    Ow21     O        0.02613    0.68491    0.97574    1.000
    Ow21     O        0.72387    0.18491    0.27426    1.000
    Ow21     O        0.52613    0.56509    0.77426    1.000
    Ow21     O        0.06509    0.77426    0.02613    1.000
    Ow21     O        0.68491    0.27426    0.22387    1.000
    Ow21     O        0.18491    0.97574    0.52613    1.000
    Ow21     O        0.56509    0.47574    0.72387    1.000
    Ow21     O        0.77426    0.22387    0.18491    1.000
    Ow21     O        0.27426    0.02613    0.56509    1.000
    Ow21     O        0.97574    0.72387    0.06509    1.000
    Ow21     O        0.47574    0.52613    0.68491    1.000
    Ow21     O        0.68491    0.02613    0.97574    1.000
    Ow21     O        0.06509    0.22387    0.47574    1.000
    Ow21     O        0.56509    0.52613    0.77426    1.000
    Ow21     O        0.18491    0.72387    0.27426    1.000
    Ow21     O        0.97574    0.18491    0.52613    1.000
    Ow21     O        0.47574    0.56509    0.72387    1.000
    Ow21     O        0.77426    0.06509    0.02613    1.000
    Ow21     O        0.27426    0.68491    0.22387    1.000
    Ow21     O        0.52613    0.47574    0.68491    1.000
    Ow21     O        0.72387    0.97574    0.06509    1.000
    Ow21     O        0.02613    0.27426    0.56509    1.000
    Ow21     O        0.22387    0.77426    0.18491    1.000
    Ow21     O        0.27613    0.43491    0.52426    1.000
    Ow21     O        0.47387    0.81509    0.02426    1.000
    Ow21     O        0.77613    0.31509    0.72574    1.000
    Ow21     O        0.97387    0.93491    0.22574    1.000
    Ow21     O        0.43491    0.72574    0.97387    1.000
    Ow21     O        0.81509    0.22574    0.77613    1.000
    Ow21     O        0.31509    0.52426    0.47387    1.000
    Ow21     O        0.93491    0.02426    0.27613    1.000
    Ow21     O        0.72574    0.27613    0.81509    1.000
    Ow21     O        0.22574    0.47387    0.43491    1.000
    Ow21     O        0.52426    0.77613    0.93491    1.000
    Ow21     O        0.02426    0.97387    0.31509    1.000
    Ow21     O        0.31509    0.97387    0.02426    1.000
    Ow21     O        0.93491    0.77613    0.52426    1.000
    Ow21     O        0.43491    0.47387    0.22574    1.000
    Ow21     O        0.81509    0.27613    0.72574    1.000
    Ow21     O        0.02426    0.81509    0.47387    1.000
    Ow21     O        0.52426    0.43491    0.27613    1.000
    Ow21     O        0.22574    0.93491    0.97387    1.000
    Ow21     O        0.72574    0.31509    0.77613    1.000
    Ow21     O        0.47387    0.52426    0.31509    1.000
    Ow21     O        0.27613    0.02426    0.93491    1.000
    Ow21     O        0.97387    0.72574    0.43491    1.000
    Ow21     O        0.77613    0.22574    0.81509    1.000
    Ow21     O        0.72387    0.56509    0.47574    1.000
    Ow21     O        0.52613    0.18491    0.97574    1.000
    Ow21     O        0.22387    0.68491    0.27426    1.000
    Ow21     O        0.02613    0.06509    0.77426    1.000
    Ow21     O        0.56509    0.27426    0.02613    1.000
    Ow21     O        0.18491    0.77426    0.22387    1.000
    Ow21     O        0.68491    0.47574    0.52613    1.000
    Ow21     O        0.06509    0.97574    0.72387    1.000
    Ow21     O        0.27426    0.72387    0.18491    1.000
    Ow21     O        0.77426    0.52613    0.56509    1.000
    Ow21     O        0.47574    0.22387    0.06509    1.000
    Ow21     O        0.97574    0.02613    0.68491    1.000
    Ow21     O        0.68491    0.52613    0.47574    1.000
    Ow21     O        0.06509    0.72387    0.97574    1.000
    Ow21     O        0.56509    0.02613    0.27426    1.000
    Ow21     O        0.18491    0.22387    0.77426    1.000
    Ow21     O        0.97574    0.68491    0.02613    1.000
    Ow21     O        0.47574    0.06509    0.22387    1.000
    Ow21     O        0.77426    0.56509    0.52613    1.000
    Ow21     O        0.27426    0.18491    0.72387    1.000
    Ow21     O        0.52613    0.97574    0.18491    1.000
    Ow21     O        0.72387    0.47574    0.56509    1.000
    Ow21     O        0.02613    0.77426    0.06509    1.000
    Ow21     O        0.22387    0.27426    0.68491    1.000
    Ow21     O        0.27613    0.93491    0.02426    1.000
    Ow21     O        0.47387    0.31509    0.52426    1.000
    Ow21     O        0.77613    0.81509    0.22574    1.000
    Ow21     O        0.97387    0.43491    0.72574    1.000
    Ow21     O        0.43491    0.22574    0.47387    1.000
    Ow21     O        0.81509    0.72574    0.27613    1.000
    Ow21     O        0.31509    0.02426    0.97387    1.000
    Ow21     O        0.93491    0.52426    0.77613    1.000
    Ow21     O        0.72574    0.77613    0.31509    1.000
    Ow21     O        0.22574    0.97387    0.93491    1.000
    Ow21     O        0.52426    0.27613    0.43491    1.000
    Ow21     O        0.02426    0.47387    0.81509    1.000
    Ow21     O        0.31509    0.47387    0.52426    1.000
    Ow21     O        0.93491    0.27613    0.02426    1.000
    Ow21     O        0.43491    0.97387    0.72574    1.000
    Ow21     O        0.81509    0.77613    0.22574    1.000
    Ow21     O        0.02426    0.31509    0.97387    1.000
    Ow21     O        0.52426    0.93491    0.77613    1.000
    Ow21     O        0.22574    0.43491    0.47387    1.000
    Ow21     O        0.72574    0.81509    0.27613    1.000
    Ow21     O        0.47387    0.02426    0.81509    1.000
    Ow21     O        0.27613    0.52426    0.43491    1.000
    Ow21     O        0.97387    0.22574    0.93491    1.000
    Ow21     O        0.77613    0.72574    0.31509    1.000
    Ow21     O        0.72387    0.06509    0.97574    1.000
    Ow21     O        0.52613    0.68491    0.47574    1.000
    Ow21     O        0.22387    0.18491    0.77426    1.000
    Ow21     O        0.02613    0.56509    0.27426    1.000
    Ow21     O        0.56509    0.77426    0.52613    1.000
    Ow21     O        0.18491    0.27426    0.72387    1.000
    Ow21     O        0.68491    0.97574    0.02613    1.000
    Ow21     O        0.06509    0.47574    0.22387    1.000
    Ow21     O        0.27426    0.22387    0.68491    1.000
    Ow21     O        0.77426    0.02613    0.06509    1.000
    Ow21     O        0.47574    0.72387    0.56509    1.000
    Ow21     O        0.97574    0.52613    0.18491    1.000
    Ow22     O        0.63508    0.26105    0.98895    1.000
    Ow22     O        0.13508    0.48895    0.26105    1.000
    Ow22     O        0.61492    0.76105    0.76105    1.000
    Ow22     O        0.48895    0.11492    0.98895    1.000
    Ow22     O        0.98895    0.63508    0.26105    1.000
    Ow22     O        0.26105    0.13508    0.48895    1.000
    Ow22     O        0.76105    0.61492    0.76105    1.000
    Ow22     O        0.98895    0.48895    0.11492    1.000
    Ow22     O        0.26105    0.98895    0.63508    1.000
    Ow22     O        0.48895    0.26105    0.13508    1.000
    Ow22     O        0.76105    0.76105    0.61492    1.000
    Ow22     O        0.73895    0.36492    0.01105    1.000
    Ow22     O        0.01105    0.88508    0.51105    1.000
    Ow22     O        0.23895    0.38508    0.23895    1.000
    Ow22     O        0.51105    0.86492    0.73895    1.000
    Ow22     O        0.86492    0.73895    0.51105    1.000
    Ow22     O        0.38508    0.23895    0.23895    1.000
    Ow22     O        0.88508    0.51105    0.01105    1.000
    Ow22     O        0.36492    0.01105    0.73895    1.000
    Ow22     O        0.23895    0.23895    0.38508    1.000
    Ow22     O        0.73895    0.51105    0.86492    1.000
    Ow22     O        0.01105    0.73895    0.36492    1.000
    Ow22     O        0.51105    0.01105    0.88508    1.000
    Ow22     O        0.88508    0.01105    0.51105    1.000
    Ow22     O        0.36492    0.73895    0.01105    1.000
    Ow22     O        0.86492    0.51105    0.73895    1.000
    Ow22     O        0.51105    0.88508    0.01105    1.000
    Ow22     O        0.01105    0.36492    0.73895    1.000
    Ow22     O        0.73895    0.86492    0.51105    1.000
    Ow22     O        0.01105    0.51105    0.88508    1.000
    Ow22     O        0.73895    0.01105    0.36492    1.000
    Ow22     O        0.51105    0.73895    0.86492    1.000
    Ow22     O        0.26105    0.63508    0.98895    1.000
    Ow22     O        0.98895    0.11492    0.48895    1.000
    Ow22     O        0.48895    0.13508    0.26105    1.000
    Ow22     O        0.13508    0.26105    0.48895    1.000
    Ow22     O        0.11492    0.48895    0.98895    1.000
    Ow22     O        0.63508    0.98895    0.26105    1.000
    Ow22     O        0.26105    0.48895    0.13508    1.000
    Ow22     O        0.98895    0.26105    0.63508    1.000
    Ow22     O        0.48895    0.98895    0.11492    1.000
    Ow22     O        0.63508    0.76105    0.48895    1.000
    Ow22     O        0.13508    0.98895    0.76105    1.000
    Ow22     O        0.61492    0.26105    0.26105    1.000
    Ow22     O        0.48895    0.61492    0.48895    1.000
    Ow22     O        0.98895    0.13508    0.76105    1.000
    Ow22     O        0.76105    0.11492    0.26105    1.000
    Ow22     O        0.98895    0.98895    0.61492    1.000
    Ow22     O        0.48895    0.76105    0.63508    1.000
    Ow22     O        0.76105    0.26105    0.11492    1.000
    Ow22     O        0.01105    0.38508    0.01105    1.000
    Ow22     O        0.23895    0.88508    0.73895    1.000
    Ow22     O        0.51105    0.36492    0.23895    1.000
    Ow22     O        0.86492    0.23895    0.01105    1.000
    Ow22     O        0.38508    0.73895    0.73895    1.000
    Ow22     O        0.36492    0.51105    0.23895    1.000
    Ow22     O        0.23895    0.73895    0.88508    1.000
    Ow22     O        0.01105    0.23895    0.86492    1.000
    Ow22     O        0.51105    0.51105    0.38508    1.000
    Ow22     O        0.36492    0.23895    0.51105    1.000
    Ow22     O        0.86492    0.01105    0.23895    1.000
    Ow22     O        0.51105    0.38508    0.51105    1.000
    Ow22     O        0.01105    0.86492    0.23895    1.000
    Ow22     O        0.01105    0.01105    0.38508    1.000
    Ow22     O        0.51105    0.23895    0.36492    1.000
    Ow22     O        0.98895    0.61492    0.98895    1.000
    Ow22     O        0.48895    0.63508    0.76105    1.000
    Ow22     O        0.13508    0.76105    0.98895    1.000
    Ow22     O        0.63508    0.48895    0.76105    1.000
    Ow22     O        0.98895    0.76105    0.13508    1.000
    Ow22     O        0.48895    0.48895    0.61492    1.000
    Ow22     O        0.61492    0.98895    0.98895    1.000
    Ow22     O        0.11492    0.76105    0.26105    1.000
    Ow22     O        0.76105    0.13508    0.98895    1.000
    Ow22     O        0.26105    0.61492    0.26105    1.000
    Ow22     O        0.76105    0.98895    0.13508    1.000
    Ow22     O        0.26105    0.76105    0.11492    1.000
    Ow22     O        0.23895    0.36492    0.51105    1.000
    Ow22     O        0.73895    0.38508    0.73895    1.000
    Ow22     O        0.88508    0.23895    0.73895    1.000
    Ow22     O        0.38508    0.51105    0.51105    1.000
    Ow22     O        0.73895    0.23895    0.88508    1.000
    Ow22     O        0.23895    0.51105    0.36492    1.000
    Ow22     O        0.38508    0.01105    0.01105    1.000
    Ow22     O        0.23895    0.86492    0.01105    1.000
    Ow22     O        0.23895    0.01105    0.86492    1.000
    Ow22     O        0.76105    0.63508    0.48895    1.000
    Ow22     O        0.61492    0.48895    0.48895    1.000
    Ow22     O        0.76105    0.48895    0.63508    1.000
    Ow22     O        0.11492    0.26105    0.76105    1.000
    Ow22     O        0.26105    0.11492    0.76105    1.000
    Ow22     O        0.26105    0.26105    0.61492    1.000
    Ow22     O        0.73895    0.88508    0.23895    1.000
    Ow22     O        0.88508    0.73895    0.23895    1.000
    Ow22     O        0.73895    0.73895    0.38508    1.000
    Ow23     O        0.49266    0.01616    0.25734    1.000
    Ow23     O        0.99266    0.73384    0.99266    1.000
    Ow23     O        0.75734    0.51616    0.49266    1.000
    Ow23     O        0.75734    0.25734    0.23384    1.000
    Ow23     O        0.25734    0.49266    0.01616    1.000
    Ow23     O        0.99266    0.99266    0.73384    1.000
    Ow23     O        0.49266    0.75734    0.51616    1.000
    Ow23     O        0.23384    0.75734    0.25734    1.000
    Ow23     O        0.01616    0.25734    0.49266    1.000
    Ow23     O        0.73384    0.99266    0.99266    1.000
    Ow23     O        0.51616    0.49266    0.75734    1.000
    Ow23     O        0.98384    0.50734    0.74266    1.000
    Ow23     O        0.76616    0.74266    0.24266    1.000
    Ow23     O        0.48384    0.24266    0.50734    1.000
    Ow23     O        0.26616    0.00734    0.00734    1.000
    Ow23     O        0.00734    0.00734    0.26616    1.000
    Ow23     O        0.24266    0.50734    0.48384    1.000
    Ow23     O        0.74266    0.24266    0.76616    1.000
    Ow23     O        0.50734    0.74266    0.98384    1.000
    Ow23     O        0.50734    0.48384    0.24266    1.000
    Ow23     O        0.00734    0.26616    0.00734    1.000
    Ow23     O        0.74266    0.98384    0.50734    1.000
    Ow23     O        0.24266    0.76616    0.74266    1.000
    Ow23     O        0.74266    0.76616    0.24266    1.000
    Ow23     O        0.50734    0.98384    0.74266    1.000
    Ow23     O        0.24266    0.48384    0.50734    1.000
    Ow23     O        0.24266    0.74266    0.76616    1.000
    Ow23     O        0.74266    0.50734    0.98384    1.000
    Ow23     O        0.50734    0.24266    0.48384    1.000
    Ow23     O        0.76616    0.24266    0.74266    1.000
    Ow23     O        0.98384    0.74266    0.50734    1.000
    Ow23     O        0.48384    0.50734    0.24266    1.000
    Ow23     O        0.01616    0.49266    0.25734    1.000
    Ow23     O        0.23384    0.25734    0.75734    1.000
    Ow23     O        0.51616    0.75734    0.49266    1.000
    Ow23     O        0.75734    0.49266    0.51616    1.000
    Ow23     O        0.25734    0.75734    0.23384    1.000
    Ow23     O        0.49266    0.25734    0.01616    1.000
    Ow23     O        0.49266    0.51616    0.75734    1.000
    Ow23     O        0.25734    0.01616    0.49266    1.000
    Ow23     O        0.75734    0.23384    0.25734    1.000
    Ow23     O        0.25734    0.73384    0.25734    1.000
    Ow23     O        0.99266    0.23384    0.49266    1.000
    Ow23     O        0.75734    0.01616    0.99266    1.000
    Ow23     O        0.75734    0.75734    0.73384    1.000
    Ow23     O        0.25734    0.99266    0.51616    1.000
    Ow23     O        0.99266    0.49266    0.23384    1.000
    Ow23     O        0.01616    0.75734    0.99266    1.000
    Ow23     O        0.73384    0.49266    0.49266    1.000
    Ow23     O        0.51616    0.99266    0.25734    1.000
    Ow23     O        0.98384    0.00734    0.24266    1.000
    Ow23     O        0.48384    0.74266    0.00734    1.000
    Ow23     O        0.26616    0.50734    0.50734    1.000
    Ow23     O        0.00734    0.50734    0.76616    1.000
    Ow23     O        0.24266    0.00734    0.98384    1.000
    Ow23     O        0.74266    0.74266    0.26616    1.000
    Ow23     O        0.00734    0.76616    0.50734    1.000
    Ow23     O        0.74266    0.48384    0.00734    1.000
    Ow23     O        0.24266    0.26616    0.24266    1.000
    Ow23     O        0.74266    0.26616    0.74266    1.000
    Ow23     O        0.24266    0.98384    0.00734    1.000
    Ow23     O        0.24266    0.24266    0.26616    1.000
    Ow23     O        0.74266    0.00734    0.48384    1.000
    Ow23     O        0.98384    0.24266    0.00734    1.000
    Ow23     O        0.48384    0.00734    0.74266    1.000
    Ow23     O        0.01616    0.99266    0.75734    1.000
    Ow23     O        0.51616    0.25734    0.99266    1.000
    Ow23     O        0.75734    0.99266    0.01616    1.000
    Ow23     O        0.25734    0.25734    0.73384    1.000
    Ow23     O        0.25734    0.51616    0.99266    1.000
    Ow23     O        0.75734    0.73384    0.75734    1.000
    Ow23     O        0.99266    0.01616    0.75734    1.000
    Ow23     O        0.49266    0.73384    0.49266    1.000
    Ow23     O        0.49266    0.99266    0.23384    1.000
    Ow23     O        0.99266    0.75734    0.01616    1.000
    Ow23     O        0.73384    0.75734    0.75734    1.000
    Ow23     O        0.23384    0.99266    0.49266    1.000
    Ow23     O        0.26616    0.74266    0.74266    1.000
    Ow23     O        0.76616    0.00734    0.50734    1.000
    Ow23     O        0.50734    0.00734    0.76616    1.000
    Ow23     O        0.00734    0.74266    0.48384    1.000
    Ow23     O        0.00734    0.48384    0.74266    1.000
    Ow23     O        0.50734    0.26616    0.50734    1.000
    Ow23     O        0.00734    0.98384    0.24266    1.000
    Ow23     O        0.00734    0.24266    0.98384    1.000
    Ow23     O        0.26616    0.24266    0.24266    1.000
    Ow23     O        0.73384    0.25734    0.25734    1.000
    Ow23     O        0.99266    0.25734    0.51616    1.000
    Ow23     O        0.99266    0.51616    0.25734    1.000
    Ow23     O        0.49266    0.23384    0.99266    1.000
    Ow23     O        0.49266    0.49266    0.73384    1.000
    Ow23     O        0.23384    0.49266    0.99266    1.000
    Ow23     O        0.76616    0.50734    0.00734    1.000
    Ow23     O        0.50734    0.50734    0.26616    1.000
    Ow23     O        0.50734    0.76616    0.00734    1.000
    Ow24     O        0.49462    0.85584    0.45330    1.000
    Ow24     O        0.99462    0.89416    0.79670    1.000
    Ow24     O        0.75538    0.35584    0.29670    1.000
    Ow24     O        0.95330    0.25538    0.39416    1.000
    Ow24     O        0.45330    0.49462    0.85584    1.000
    Ow24     O        0.79670    0.99462    0.89416    1.000
    Ow24     O        0.29670    0.75538    0.35584    1.000
    Ow24     O        0.39416    0.95330    0.25538    1.000
    Ow24     O        0.85584    0.45330    0.49462    1.000
    Ow24     O        0.89416    0.79670    0.99462    1.000
    Ow24     O        0.35584    0.29670    0.75538    1.000
    Ow24     O        0.14416    0.50538    0.54670    1.000
    Ow24     O        0.60584    0.74462    0.04670    1.000
    Ow24     O        0.64416    0.24462    0.70330    1.000
    Ow24     O        0.10584    0.00538    0.20330    1.000
    Ow24     O        0.00538    0.20330    0.10584    1.000
    Ow24     O        0.24462    0.70330    0.64416    1.000
    Ow24     O        0.74462    0.04670    0.60584    1.000
    Ow24     O        0.50538    0.54670    0.14416    1.000
    Ow24     O        0.70330    0.64416    0.24462    1.000
    Ow24     O        0.20330    0.10584    0.00538    1.000
    Ow24     O        0.54670    0.14416    0.50538    1.000
    Ow24     O        0.04670    0.60584    0.74462    1.000
    Ow24     O        0.74462    0.60584    0.04670    1.000
    Ow24     O        0.50538    0.14416    0.54670    1.000
    Ow24     O        0.00538    0.10584    0.20330    1.000
    Ow24     O        0.24462    0.64416    0.70330    1.000
    Ow24     O        0.04670    0.74462    0.60584    1.000
    Ow24     O        0.54670    0.50538    0.14416    1.000
    Ow24     O        0.20330    0.00538    0.10584    1.000
    Ow24     O        0.70330    0.24462    0.64416    1.000
    Ow24     O        0.60584    0.04670    0.74462    1.000
    Ow24     O        0.14416    0.54670    0.50538    1.000
    Ow24     O        0.10584    0.20330    0.00538    1.000
    Ow24     O        0.64416    0.70330    0.24462    1.000
    Ow24     O        0.85584    0.49462    0.45330    1.000
    Ow24     O        0.39416    0.25538    0.95330    1.000
    Ow24     O        0.35584    0.75538    0.29670    1.000
    Ow24     O        0.89416    0.99462    0.79670    1.000
    Ow24     O        0.99462    0.79670    0.89416    1.000
    Ow24     O        0.75538    0.29670    0.35584    1.000
    Ow24     O        0.25538    0.95330    0.39416    1.000
    Ow24     O        0.49462    0.45330    0.85584    1.000
    Ow24     O        0.29670    0.35584    0.75538    1.000
    Ow24     O        0.79670    0.89416    0.99462    1.000
    Ow24     O        0.45330    0.85584    0.49462    1.000
    Ow24     O        0.95330    0.39416    0.25538    1.000
    Ow24     O        0.25538    0.89416    0.45330    1.000
    Ow24     O        0.49462    0.35584    0.95330    1.000
    Ow24     O        0.99462    0.39416    0.29670    1.000
    Ow24     O        0.75538    0.85584    0.79670    1.000
    Ow24     O        0.95330    0.75538    0.89416    1.000
    Ow24     O        0.45330    0.99462    0.35584    1.000
    Ow24     O        0.79670    0.49462    0.39416    1.000
    Ow24     O        0.29670    0.25538    0.85584    1.000
    Ow24     O        0.39416    0.45330    0.75538    1.000
    Ow24     O        0.85584    0.95330    0.99462    1.000
    Ow24     O        0.89416    0.29670    0.49462    1.000
    Ow24     O        0.35584    0.79670    0.25538    1.000
    Ow24     O        0.14416    0.00538    0.04670    1.000
    Ow24     O        0.60584    0.24462    0.54670    1.000
    Ow24     O        0.64416    0.74462    0.20330    1.000
    Ow24     O        0.10584    0.50538    0.70330    1.000
    Ow24     O        0.00538    0.70330    0.60584    1.000
    Ow24     O        0.24462    0.20330    0.14416    1.000
    Ow24     O        0.74462    0.54670    0.10584    1.000
    Ow24     O        0.50538    0.04670    0.64416    1.000
    Ow24     O        0.70330    0.14416    0.74462    1.000
    Ow24     O        0.20330    0.60584    0.50538    1.000
    Ow24     O        0.54670    0.64416    0.00538    1.000
    Ow24     O        0.04670    0.10584    0.24462    1.000
    Ow24     O        0.74462    0.10584    0.54670    1.000
    Ow24     O        0.50538    0.64416    0.04670    1.000
    Ow24     O        0.00538    0.60584    0.70330    1.000
    Ow24     O        0.24462    0.14416    0.20330    1.000
    Ow24     O        0.04670    0.24462    0.10584    1.000
    Ow24     O        0.54670    0.00538    0.64416    1.000
    Ow24     O        0.20330    0.50538    0.60584    1.000
    Ow24     O        0.70330    0.74462    0.14416    1.000
    Ow24     O        0.60584    0.54670    0.24462    1.000
    Ow24     O        0.14416    0.04670    0.00538    1.000
    Ow24     O        0.10584    0.70330    0.50538    1.000
    Ow24     O        0.64416    0.20330    0.74462    1.000
    Ow24     O        0.85584    0.99462    0.95330    1.000
    Ow24     O        0.39416    0.75538    0.45330    1.000
    Ow24     O        0.35584    0.25538    0.79670    1.000
    Ow24     O        0.89416    0.49462    0.29670    1.000
    Ow24     O        0.99462    0.29670    0.39416    1.000
    Ow24     O        0.75538    0.79670    0.85584    1.000
    Ow24     O        0.25538    0.45330    0.89416    1.000
    Ow24     O        0.49462    0.95330    0.35584    1.000
    Ow24     O        0.29670    0.85584    0.25538    1.000
    Ow24     O        0.79670    0.39416    0.49462    1.000
    Ow24     O        0.45330    0.35584    0.99462    1.000
    Ow24     O        0.95330    0.89416    0.75538    1.000
    Ow24     O        0.75538    0.39416    0.45330    1.000
    Ow24     O        0.99462    0.85584    0.95330    1.000
    Ow24     O        0.49462    0.89416    0.29670    1.000
    Ow24     O        0.25538    0.35584    0.79670    1.000
    Ow24     O        0.45330    0.25538    0.89416    1.000
    Ow24     O        0.95330    0.49462    0.35584    1.000
    Ow24     O        0.29670    0.99462    0.39416    1.000
    Ow24     O        0.79670    0.75538    0.85584    1.000
    Ow24     O        0.89416    0.95330    0.75538    1.000
    Ow24     O        0.35584    0.45330    0.99462    1.000
    Ow24     O        0.39416    0.79670    0.49462    1.000
    Ow24     O        0.85584    0.29670    0.25538    1.000
    Ow24     O        0.64416    0.50538    0.04670    1.000
    Ow24     O        0.10584    0.74462    0.54670    1.000
    Ow24     O        0.14416    0.24462    0.20330    1.000
    Ow24     O        0.60584    0.00538    0.70330    1.000
    Ow24     O        0.50538    0.20330    0.60584    1.000
    Ow24     O        0.74462    0.70330    0.14416    1.000
    Ow24     O        0.24462    0.04670    0.10584    1.000
    Ow24     O        0.00538    0.54670    0.64416    1.000
    Ow24     O        0.20330    0.64416    0.74462    1.000
    Ow24     O        0.70330    0.10584    0.50538    1.000
    Ow24     O        0.04670    0.14416    0.00538    1.000
    Ow24     O        0.54670    0.60584    0.24462    1.000
    Ow24     O        0.24462    0.60584    0.54670    1.000
    Ow24     O        0.00538    0.14416    0.04670    1.000
    Ow24     O        0.50538    0.10584    0.70330    1.000
    Ow24     O        0.74462    0.64416    0.20330    1.000
    Ow24     O        0.54670    0.74462    0.10584    1.000
    Ow24     O        0.04670    0.50538    0.64416    1.000
    Ow24     O        0.70330    0.00538    0.60584    1.000
    Ow24     O        0.20330    0.24462    0.14416    1.000
    Ow24     O        0.10584    0.04670    0.24462    1.000
    Ow24     O        0.64416    0.54670    0.00538    1.000
    Ow24     O        0.60584    0.20330    0.50538    1.000
    Ow24     O        0.14416    0.70330    0.74462    1.000
    Ow24     O        0.35584    0.49462    0.95330    1.000
    Ow24     O        0.89416    0.25538    0.45330    1.000
    Ow24     O        0.85584    0.75538    0.79670    1.000
    Ow24     O        0.39416    0.99462    0.29670    1.000
    Ow24     O        0.49462    0.79670    0.39416    1.000
    Ow24     O        0.25538    0.29670    0.85584    1.000
    Ow24     O        0.75538    0.95330    0.89416    1.000
    Ow24     O        0.99462    0.45330    0.35584    1.000
    Ow24     O        0.79670    0.35584    0.25538    1.000
    Ow24     O        0.29670    0.89416    0.49462    1.000
    Ow24     O        0.95330    0.85584    0.99462    1.000
    Ow24     O        0.45330    0.39416    0.75538    1.000
    Ow24     O        0.75538    0.89416    0.95330    1.000
    Ow24     O        0.99462    0.35584    0.45330    1.000
    Ow24     O        0.49462    0.39416    0.79670    1.000
    Ow24     O        0.25538    0.85584    0.29670    1.000
    Ow24     O        0.45330    0.75538    0.39416    1.000
    Ow24     O        0.95330    0.99462    0.85584    1.000
    Ow24     O        0.29670    0.49462    0.89416    1.000
    Ow24     O        0.79670    0.25538    0.35584    1.000
    Ow24     O        0.89416    0.45330    0.25538    1.000
    Ow24     O        0.35584    0.95330    0.49462    1.000
    Ow24     O        0.39416    0.29670    0.99462    1.000
    Ow24     O        0.85584    0.79670    0.75538    1.000
    Ow24     O        0.64416    0.00538    0.54670    1.000
    Ow24     O        0.10584    0.24462    0.04670    1.000
    Ow24     O        0.14416    0.74462    0.70330    1.000
    Ow24     O        0.60584    0.50538    0.20330    1.000
    Ow24     O        0.50538    0.70330    0.10584    1.000
    Ow24     O        0.74462    0.20330    0.64416    1.000
    Ow24     O        0.24462    0.54670    0.60584    1.000
    Ow24     O        0.00538    0.04670    0.14416    1.000
    Ow24     O        0.20330    0.14416    0.24462    1.000
    Ow24     O        0.70330    0.60584    0.00538    1.000
    Ow24     O        0.04670    0.64416    0.50538    1.000
    Ow24     O        0.54670    0.10584    0.74462    1.000
    Ow24     O        0.24462    0.10584    0.04670    1.000
    Ow24     O        0.00538    0.64416    0.54670    1.000
    Ow24     O        0.50538    0.60584    0.20330    1.000
    Ow24     O        0.74462    0.14416    0.70330    1.000
    Ow24     O        0.54670    0.24462    0.60584    1.000
    Ow24     O        0.04670    0.00538    0.14416    1.000
    Ow24     O        0.70330    0.50538    0.10584    1.000
    Ow24     O        0.20330    0.74462    0.64416    1.000
    Ow24     O        0.10584    0.54670    0.74462    1.000
    Ow24     O        0.64416    0.04670    0.50538    1.000
    Ow24     O        0.60584    0.70330    0.00538    1.000
    Ow24     O        0.14416    0.20330    0.24462    1.000
    Ow24     O        0.35584    0.99462    0.45330    1.000
    Ow24     O        0.89416    0.75538    0.95330    1.000
    Ow24     O        0.85584    0.25538    0.29670    1.000
    Ow24     O        0.39416    0.49462    0.79670    1.000
    Ow24     O        0.49462    0.29670    0.89416    1.000
    Ow24     O        0.25538    0.79670    0.35584    1.000
    Ow24     O        0.75538    0.45330    0.39416    1.000
    Ow24     O        0.99462    0.95330    0.85584    1.000
    Ow24     O        0.79670    0.85584    0.75538    1.000
    Ow24     O        0.29670    0.39416    0.99462    1.000
    Ow24     O        0.95330    0.35584    0.49462    1.000
    Ow24     O        0.45330    0.89416    0.25538    1.000
    Ow25     O        0.61941    0.29093    0.91889    1.000
    Ow25     O        0.11941    0.45907    0.33111    1.000
    Ow25     O        0.63059    0.79093    0.83111    1.000
    Ow25     O        0.41889    0.13059    0.95907    1.000
    Ow25     O        0.91889    0.61941    0.29093    1.000
    Ow25     O        0.33111    0.11941    0.45907    1.000
    Ow25     O        0.83111    0.63059    0.79093    1.000
    Ow25     O        0.95907    0.41889    0.13059    1.000
    Ow25     O        0.29093    0.91889    0.61941    1.000
    Ow25     O        0.45907    0.33111    0.11941    1.000
    Ow25     O        0.79093    0.83111    0.63059    1.000
    Ow25     O        0.70907    0.38059    0.08111    1.000
    Ow25     O        0.04093    0.86941    0.58111    1.000
    Ow25     O        0.20907    0.36941    0.16889    1.000
    Ow25     O        0.54093    0.88059    0.66889    1.000
    Ow25     O        0.88059    0.66889    0.54093    1.000
    Ow25     O        0.36941    0.16889    0.20907    1.000
    Ow25     O        0.86941    0.58111    0.04093    1.000
    Ow25     O        0.38059    0.08111    0.70907    1.000
    Ow25     O        0.16889    0.20907    0.36941    1.000
    Ow25     O        0.66889    0.54093    0.88059    1.000
    Ow25     O        0.08111    0.70907    0.38059    1.000
    Ow25     O        0.58111    0.04093    0.86941    1.000
    Ow25     O        0.86941    0.04093    0.58111    1.000
    Ow25     O        0.38059    0.70907    0.08111    1.000
    Ow25     O        0.88059    0.54093    0.66889    1.000
    Ow25     O        0.36941    0.20907    0.16889    1.000
    Ow25     O        0.58111    0.86941    0.04093    1.000
    Ow25     O        0.08111    0.38059    0.70907    1.000
    Ow25     O        0.66889    0.88059    0.54093    1.000
    Ow25     O        0.16889    0.36941    0.20907    1.000
    Ow25     O        0.04093    0.58111    0.86941    1.000
    Ow25     O        0.70907    0.08111    0.38059    1.000
    Ow25     O        0.54093    0.66889    0.88059    1.000
    Ow25     O        0.20907    0.16889    0.36941    1.000
    Ow25     O        0.29093    0.61941    0.91889    1.000
    Ow25     O        0.95907    0.13059    0.41889    1.000
    Ow25     O        0.79093    0.63059    0.83111    1.000
    Ow25     O        0.45907    0.11941    0.33111    1.000
    Ow25     O        0.11941    0.33111    0.45907    1.000
    Ow25     O        0.63059    0.83111    0.79093    1.000
    Ow25     O        0.13059    0.41889    0.95907    1.000
    Ow25     O        0.61941    0.91889    0.29093    1.000
    Ow25     O        0.83111    0.79093    0.63059    1.000
    Ow25     O        0.33111    0.45907    0.11941    1.000
    Ow25     O        0.91889    0.29093    0.61941    1.000
    Ow25     O        0.41889    0.95907    0.13059    1.000
    Ow25     O        0.13059    0.45907    0.91889    1.000
    Ow25     O        0.61941    0.79093    0.41889    1.000
    Ow25     O        0.11941    0.95907    0.83111    1.000
    Ow25     O        0.63059    0.29093    0.33111    1.000
    Ow25     O        0.41889    0.63059    0.45907    1.000
    Ow25     O        0.91889    0.11941    0.79093    1.000
    Ow25     O        0.33111    0.61941    0.95907    1.000
    Ow25     O        0.83111    0.13059    0.29093    1.000
    Ow25     O        0.95907    0.91889    0.63059    1.000
    Ow25     O        0.29093    0.41889    0.11941    1.000
    Ow25     O        0.45907    0.83111    0.61941    1.000
    Ow25     O        0.79093    0.33111    0.13059    1.000
    Ow25     O        0.70907    0.88059    0.58111    1.000
    Ow25     O        0.04093    0.36941    0.08111    1.000
    Ow25     O        0.20907    0.86941    0.66889    1.000
    Ow25     O        0.54093    0.38059    0.16889    1.000
    Ow25     O        0.88059    0.16889    0.04093    1.000
    Ow25     O        0.36941    0.66889    0.70907    1.000
    Ow25     O        0.86941    0.08111    0.54093    1.000
    Ow25     O        0.38059    0.58111    0.20907    1.000
    Ow25     O        0.16889    0.70907    0.86941    1.000
    Ow25     O        0.66889    0.04093    0.38059    1.000
    Ow25     O        0.08111    0.20907    0.88059    1.000
    Ow25     O        0.58111    0.54093    0.36941    1.000
    Ow25     O        0.86941    0.54093    0.08111    1.000
    Ow25     O        0.38059    0.20907    0.58111    1.000
    Ow25     O        0.88059    0.04093    0.16889    1.000
    Ow25     O        0.36941    0.70907    0.66889    1.000
    Ow25     O        0.58111    0.36941    0.54093    1.000
    Ow25     O        0.08111    0.88059    0.20907    1.000
    Ow25     O        0.66889    0.38059    0.04093    1.000
    Ow25     O        0.16889    0.86941    0.70907    1.000
    Ow25     O        0.04093    0.08111    0.36941    1.000
    Ow25     O        0.70907    0.58111    0.88059    1.000
    Ow25     O        0.54093    0.16889    0.38059    1.000
    Ow25     O        0.20907    0.66889    0.86941    1.000
    Ow25     O        0.29093    0.11941    0.41889    1.000
    Ow25     O        0.95907    0.63059    0.91889    1.000
    Ow25     O        0.79093    0.13059    0.33111    1.000
    Ow25     O        0.45907    0.61941    0.83111    1.000
    Ow25     O        0.11941    0.83111    0.95907    1.000
    Ow25     O        0.63059    0.33111    0.29093    1.000
    Ow25     O        0.13059    0.91889    0.45907    1.000
    Ow25     O        0.61941    0.41889    0.79093    1.000
    Ow25     O        0.83111    0.29093    0.13059    1.000
    Ow25     O        0.33111    0.95907    0.61941    1.000
    Ow25     O        0.91889    0.79093    0.11941    1.000
    Ow25     O        0.41889    0.45907    0.63059    1.000
    Ow25     O        0.63059    0.95907    0.91889    1.000
    Ow25     O        0.11941    0.29093    0.41889    1.000
    Ow25     O        0.61941    0.45907    0.83111    1.000
    Ow25     O        0.13059    0.79093    0.33111    1.000
    Ow25     O        0.91889    0.13059    0.45907    1.000
    Ow25     O        0.41889    0.61941    0.79093    1.000
    Ow25     O        0.83111    0.11941    0.95907    1.000
    Ow25     O        0.33111    0.63059    0.29093    1.000
    Ow25     O        0.45907    0.41889    0.63059    1.000
    Ow25     O        0.79093    0.91889    0.11941    1.000
    Ow25     O        0.95907    0.33111    0.61941    1.000
    Ow25     O        0.29093    0.83111    0.13059    1.000
    Ow25     O        0.20907    0.38059    0.58111    1.000
    Ow25     O        0.54093    0.86941    0.08111    1.000
    Ow25     O        0.70907    0.36941    0.66889    1.000
    Ow25     O        0.04093    0.88059    0.16889    1.000
    Ow25     O        0.38059    0.66889    0.04093    1.000
    Ow25     O        0.86941    0.16889    0.70907    1.000
    Ow25     O        0.36941    0.58111    0.54093    1.000
    Ow25     O        0.88059    0.08111    0.20907    1.000
    Ow25     O        0.66889    0.20907    0.86941    1.000
    Ow25     O        0.16889    0.54093    0.38059    1.000
    Ow25     O        0.58111    0.70907    0.88059    1.000
    Ow25     O        0.08111    0.04093    0.36941    1.000
    Ow25     O        0.36941    0.04093    0.08111    1.000
    Ow25     O        0.88059    0.70907    0.58111    1.000
    Ow25     O        0.38059    0.54093    0.16889    1.000
    Ow25     O        0.86941    0.20907    0.66889    1.000
    Ow25     O        0.08111    0.86941    0.54093    1.000
    Ow25     O        0.58111    0.38059    0.20907    1.000
    Ow25     O        0.16889    0.88059    0.04093    1.000
    Ow25     O        0.66889    0.36941    0.70907    1.000
    Ow25     O        0.54093    0.58111    0.36941    1.000
    Ow25     O        0.20907    0.08111    0.88059    1.000
    Ow25     O        0.04093    0.66889    0.38059    1.000
    Ow25     O        0.70907    0.16889    0.86941    1.000
    Ow25     O        0.79093    0.61941    0.41889    1.000
    Ow25     O        0.45907    0.13059    0.91889    1.000
    Ow25     O        0.29093    0.63059    0.33111    1.000
    Ow25     O        0.95907    0.11941    0.83111    1.000
    Ow25     O        0.61941    0.33111    0.95907    1.000
    Ow25     O        0.13059    0.83111    0.29093    1.000
    Ow25     O        0.63059    0.41889    0.45907    1.000
    Ow25     O        0.11941    0.91889    0.79093    1.000
    Ow25     O        0.33111    0.79093    0.13059    1.000
    Ow25     O        0.83111    0.45907    0.61941    1.000
    Ow25     O        0.41889    0.29093    0.11941    1.000
    Ow25     O        0.91889    0.95907    0.63059    1.000
    Ow25     O        0.63059    0.45907    0.41889    1.000
    Ow25     O        0.11941    0.79093    0.91889    1.000
    Ow25     O        0.61941    0.95907    0.33111    1.000
    Ow25     O        0.13059    0.29093    0.83111    1.000
    Ow25     O        0.91889    0.63059    0.95907    1.000
    Ow25     O        0.41889    0.11941    0.29093    1.000
    Ow25     O        0.83111    0.61941    0.45907    1.000
    Ow25     O        0.33111    0.13059    0.79093    1.000
    Ow25     O        0.45907    0.91889    0.13059    1.000
    Ow25     O        0.79093    0.41889    0.61941    1.000
    Ow25     O        0.95907    0.83111    0.11941    1.000
    Ow25     O        0.29093    0.33111    0.63059    1.000
    Ow25     O        0.20907    0.88059    0.08111    1.000
    Ow25     O        0.54093    0.36941    0.58111    1.000
    Ow25     O        0.70907    0.86941    0.16889    1.000
    Ow25     O        0.04093    0.38059    0.66889    1.000
    Ow25     O        0.38059    0.16889    0.54093    1.000
    Ow25     O        0.86941    0.66889    0.20907    1.000
    Ow25     O        0.36941    0.08111    0.04093    1.000
    Ow25     O        0.88059    0.58111    0.70907    1.000
    Ow25     O        0.66889    0.70907    0.36941    1.000
    Ow25     O        0.16889    0.04093    0.88059    1.000
    Ow25     O        0.58111    0.20907    0.38059    1.000
    Ow25     O        0.08111    0.54093    0.86941    1.000
    Ow25     O        0.36941    0.54093    0.58111    1.000
    Ow25     O        0.88059    0.20907    0.08111    1.000
    Ow25     O        0.38059    0.04093    0.66889    1.000
    Ow25     O        0.86941    0.70907    0.16889    1.000
    Ow25     O        0.08111    0.36941    0.04093    1.000
    Ow25     O        0.58111    0.88059    0.70907    1.000
    Ow25     O        0.16889    0.38059    0.54093    1.000
    Ow25     O        0.66889    0.86941    0.20907    1.000
    Ow25     O        0.54093    0.08111    0.86941    1.000
    Ow25     O        0.20907    0.58111    0.38059    1.000
    Ow25     O        0.04093    0.16889    0.88059    1.000
    Ow25     O        0.70907    0.66889    0.36941    1.000
    Ow25     O        0.79093    0.11941    0.91889    1.000
    Ow25     O        0.45907    0.63059    0.41889    1.000
    Ow25     O        0.29093    0.13059    0.83111    1.000
    Ow25     O        0.95907    0.61941    0.33111    1.000
    Ow25     O        0.61941    0.83111    0.45907    1.000
    Ow25     O        0.13059    0.33111    0.79093    1.000
    Ow25     O        0.63059    0.91889    0.95907    1.000
    Ow25     O        0.11941    0.41889    0.29093    1.000
    Ow25     O        0.33111    0.29093    0.63059    1.000
    Ow25     O        0.83111    0.95907    0.11941    1.000
    Ow25     O        0.41889    0.79093    0.61941    1.000
    Ow25     O        0.91889    0.45907    0.13059    1.000
    Ow26     O        0.62707    0.30856    0.94144    1.000
    Ow26     O        0.12707    0.44144    0.30856    1.000
    Ow26     O        0.62293    0.80856    0.80856    1.000
    Ow26     O        0.44144    0.12293    0.94144    1.000
    Ow26     O        0.94144    0.62707    0.30856    1.000
    Ow26     O        0.30856    0.12707    0.44144    1.000
    Ow26     O        0.80856    0.62293    0.80856    1.000
    Ow26     O        0.94144    0.44144    0.12293    1.000
    Ow26     O        0.30856    0.94144    0.62707    1.000
    Ow26     O        0.44144    0.30856    0.12707    1.000
    Ow26     O        0.80856    0.80856    0.62293    1.000
    Ow26     O        0.69144    0.37293    0.05856    1.000
    Ow26     O        0.05856    0.87707    0.55856    1.000
    Ow26     O        0.19144    0.37707    0.19144    1.000
    Ow26     O        0.55856    0.87293    0.69144    1.000
    Ow26     O        0.87293    0.69144    0.55856    1.000
    Ow26     O        0.37707    0.19144    0.19144    1.000
    Ow26     O        0.87707    0.55856    0.05856    1.000
    Ow26     O        0.37293    0.05856    0.69144    1.000
    Ow26     O        0.19144    0.19144    0.37707    1.000
    Ow26     O        0.69144    0.55856    0.87293    1.000
    Ow26     O        0.05856    0.69144    0.37293    1.000
    Ow26     O        0.55856    0.05856    0.87707    1.000
    Ow26     O        0.87707    0.05856    0.55856    1.000
    Ow26     O        0.37293    0.69144    0.05856    1.000
    Ow26     O        0.87293    0.55856    0.69144    1.000
    Ow26     O        0.55856    0.87707    0.05856    1.000
    Ow26     O        0.05856    0.37293    0.69144    1.000
    Ow26     O        0.69144    0.87293    0.55856    1.000
    Ow26     O        0.05856    0.55856    0.87707    1.000
    Ow26     O        0.69144    0.05856    0.37293    1.000
    Ow26     O        0.55856    0.69144    0.87293    1.000
    Ow26     O        0.30856    0.62707    0.94144    1.000
    Ow26     O        0.94144    0.12293    0.44144    1.000
    Ow26     O        0.44144    0.12707    0.30856    1.000
    Ow26     O        0.12707    0.30856    0.44144    1.000
    Ow26     O        0.12293    0.44144    0.94144    1.000
    Ow26     O        0.62707    0.94144    0.30856    1.000
    Ow26     O        0.30856    0.44144    0.12707    1.000
    Ow26     O        0.94144    0.30856    0.62707    1.000
    Ow26     O        0.44144    0.94144    0.12293    1.000
    Ow26     O        0.62707    0.80856    0.44144    1.000
    Ow26     O        0.12707    0.94144    0.80856    1.000
    Ow26     O        0.62293    0.30856    0.30856    1.000
    Ow26     O        0.44144    0.62293    0.44144    1.000
    Ow26     O        0.94144    0.12707    0.80856    1.000
    Ow26     O        0.80856    0.12293    0.30856    1.000
    Ow26     O        0.94144    0.94144    0.62293    1.000
    Ow26     O        0.44144    0.80856    0.62707    1.000
    Ow26     O        0.80856    0.30856    0.12293    1.000
    Ow26     O        0.05856    0.37707    0.05856    1.000
    Ow26     O        0.19144    0.87707    0.69144    1.000
    Ow26     O        0.55856    0.37293    0.19144    1.000
    Ow26     O        0.87293    0.19144    0.05856    1.000
    Ow26     O        0.37707    0.69144    0.69144    1.000
    Ow26     O        0.37293    0.55856    0.19144    1.000
    Ow26     O        0.19144    0.69144    0.87707    1.000
    Ow26     O        0.05856    0.19144    0.87293    1.000
    Ow26     O        0.55856    0.55856    0.37707    1.000
    Ow26     O        0.37293    0.19144    0.55856    1.000
    Ow26     O        0.87293    0.05856    0.19144    1.000
    Ow26     O        0.55856    0.37707    0.55856    1.000
    Ow26     O        0.05856    0.87293    0.19144    1.000
    Ow26     O        0.05856    0.05856    0.37707    1.000
    Ow26     O        0.55856    0.19144    0.37293    1.000
    Ow26     O        0.94144    0.62293    0.94144    1.000
    Ow26     O        0.44144    0.62707    0.80856    1.000
    Ow26     O        0.12707    0.80856    0.94144    1.000
    Ow26     O        0.62707    0.44144    0.80856    1.000
    Ow26     O        0.94144    0.80856    0.12707    1.000
    Ow26     O        0.44144    0.44144    0.62293    1.000
    Ow26     O        0.62293    0.94144    0.94144    1.000
    Ow26     O        0.12293    0.80856    0.30856    1.000
    Ow26     O        0.80856    0.12707    0.94144    1.000
    Ow26     O        0.30856    0.62293    0.30856    1.000
    Ow26     O        0.80856    0.94144    0.12707    1.000
    Ow26     O        0.30856    0.80856    0.12293    1.000
    Ow26     O        0.19144    0.37293    0.55856    1.000
    Ow26     O        0.69144    0.37707    0.69144    1.000
    Ow26     O        0.87707    0.19144    0.69144    1.000
    Ow26     O        0.37707    0.55856    0.55856    1.000
    Ow26     O        0.69144    0.19144    0.87707    1.000
    Ow26     O        0.19144    0.55856    0.37293    1.000
    Ow26     O        0.37707    0.05856    0.05856    1.000
    Ow26     O        0.19144    0.87293    0.05856    1.000
    Ow26     O        0.19144    0.05856    0.87293    1.000
    Ow26     O        0.80856    0.62707    0.44144    1.000
    Ow26     O        0.62293    0.44144    0.44144    1.000
    Ow26     O        0.80856    0.44144    0.62707    1.000
    Ow26     O        0.12293    0.30856    0.80856    1.000
    Ow26     O        0.30856    0.12293    0.80856    1.000
    Ow26     O        0.30856    0.30856    0.62293    1.000
    Ow26     O        0.69144    0.87707    0.19144    1.000
    Ow26     O        0.87707    0.69144    0.19144    1.000
    Ow26     O        0.69144    0.69144    0.37707    1.000
    Ow27     O        0.59154    0.09154    0.15847    1.000
    Ow27     O        0.09154    0.65846    0.09153    1.000
    Ow27     O        0.65846    0.59154    0.59153    1.000
    Ow27     O        0.65847    0.15846    0.15846    1.000
    Ow27     O        0.15847    0.59154    0.09154    1.000
    Ow27     O        0.09153    0.09154    0.65846    1.000
    Ow27     O        0.59153    0.65846    0.59154    1.000
    Ow27     O        0.15846    0.65847    0.15846    1.000
    Ow27     O        0.09154    0.15847    0.59154    1.000
    Ow27     O        0.65846    0.09153    0.09154    1.000
    Ow27     O        0.59154    0.59153    0.65846    1.000
    Ow27     O        0.90846    0.40846    0.84153    1.000
    Ow27     O        0.84154    0.84154    0.34153    1.000
    Ow27     O        0.40846    0.34154    0.40847    1.000
    Ow27     O        0.34154    0.90846    0.90847    1.000
    Ow27     O        0.90846    0.90847    0.34154    1.000
    Ow27     O        0.34154    0.40847    0.40846    1.000
    Ow27     O        0.84154    0.34153    0.84154    1.000
    Ow27     O        0.40846    0.84153    0.90846    1.000
    Ow27     O        0.40847    0.40846    0.34154    1.000
    Ow27     O        0.90847    0.34154    0.90846    1.000
    Ow27     O        0.84153    0.90846    0.40846    1.000
    Ow27     O        0.34153    0.84154    0.84154    1.000
    Ow27     O        0.40846    0.90846    0.84153    1.000
    Ow27     O        0.84153    0.40846    0.90846    1.000
    Ow27     O        0.90846    0.84153    0.40846    1.000
    Ow27     O        0.09154    0.59154    0.15847    1.000
    Ow27     O        0.59154    0.15847    0.09154    1.000
    Ow27     O        0.15847    0.09154    0.59154    1.000
    Ow27     O        0.65847    0.65846    0.65846    1.000
    Ow27     O        0.34153    0.34154    0.34154    1.000
    Ow28     O        0.39287    0.96755    0.18784    1.000
    Ow28     O        0.89287    0.78245    0.06216    1.000
    Ow28     O        0.85713    0.46755    0.56216    1.000
    Ow28     O        0.68784    0.35713    0.28245    1.000
    Ow28     O        0.18784    0.39287    0.96755    1.000
    Ow28     O        0.06216    0.89287    0.78245    1.000
    Ow28     O        0.56216    0.85713    0.46755    1.000
    Ow28     O        0.28245    0.68784    0.35713    1.000
    Ow28     O        0.96755    0.18784    0.39287    1.000
    Ow28     O        0.78245    0.06216    0.89287    1.000
    Ow28     O        0.46755    0.56216    0.85713    1.000
    Ow28     O        0.03245    0.60713    0.81216    1.000
    Ow28     O        0.71755    0.64287    0.31216    1.000
    Ow28     O        0.53245    0.14287    0.43784    1.000
    Ow28     O        0.21755    0.10713    0.93784    1.000
    Ow28     O        0.10713    0.93784    0.21755    1.000
    Ow28     O        0.14287    0.43784    0.53245    1.000
    Ow28     O        0.64287    0.31216    0.71755    1.000
    Ow28     O        0.60713    0.81216    0.03245    1.000
    Ow28     O        0.43784    0.53245    0.14287    1.000
    Ow28     O        0.93784    0.21755    0.10713    1.000
    Ow28     O        0.81216    0.03245    0.60713    1.000
    Ow28     O        0.31216    0.71755    0.64287    1.000
    Ow28     O        0.64287    0.71755    0.31216    1.000
    Ow28     O        0.60713    0.03245    0.81216    1.000
    Ow28     O        0.10713    0.21755    0.93784    1.000
    Ow28     O        0.14287    0.53245    0.43784    1.000
    Ow28     O        0.31216    0.64287    0.71755    1.000
    Ow28     O        0.81216    0.60713    0.03245    1.000
    Ow28     O        0.93784    0.10713    0.21755    1.000
    Ow28     O        0.43784    0.14287    0.53245    1.000
    Ow28     O        0.71755    0.31216    0.64287    1.000
    Ow28     O        0.03245    0.81216    0.60713    1.000
    Ow28     O        0.21755    0.93784    0.10713    1.000
    Ow28     O        0.53245    0.43784    0.14287    1.000
    Ow28     O        0.96755    0.39287    0.18784    1.000
    Ow28     O        0.28245    0.35713    0.68784    1.000
    Ow28     O        0.46755    0.85713    0.56216    1.000
    Ow28     O        0.78245    0.89287    0.06216    1.000
    Ow28     O        0.89287    0.06216    0.78245    1.000
    Ow28     O        0.85713    0.56216    0.46755    1.000
    Ow28     O        0.35713    0.68784    0.28245    1.000
    Ow28     O        0.39287    0.18784    0.96755    1.000
    Ow28     O        0.56216    0.46755    0.85713    1.000
    Ow28     O        0.06216    0.78245    0.89287    1.000
    Ow28     O        0.18784    0.96755    0.39287    1.000
    Ow28     O        0.68784    0.28245    0.35713    1.000
    Ow28     O        0.35713    0.78245    0.18784    1.000
    Ow28     O        0.39287    0.46755    0.68784    1.000
    Ow28     O        0.89287    0.28245    0.56216    1.000
    Ow28     O        0.85713    0.96755    0.06216    1.000
    Ow28     O        0.68784    0.85713    0.78245    1.000
    Ow28     O        0.18784    0.89287    0.46755    1.000
    Ow28     O        0.06216    0.39287    0.28245    1.000
    Ow28     O        0.56216    0.35713    0.96755    1.000
    Ow28     O        0.28245    0.18784    0.85713    1.000
    Ow28     O        0.96755    0.68784    0.89287    1.000
    Ow28     O        0.78245    0.56216    0.39287    1.000
    Ow28     O        0.46755    0.06216    0.35713    1.000
    Ow28     O        0.03245    0.10713    0.31216    1.000
    Ow28     O        0.71755    0.14287    0.81216    1.000
    Ow28     O        0.53245    0.64287    0.93784    1.000
    Ow28     O        0.21755    0.60713    0.43784    1.000
    Ow28     O        0.10713    0.43784    0.71755    1.000
    Ow28     O        0.14287    0.93784    0.03245    1.000
    Ow28     O        0.64287    0.81216    0.21755    1.000
    Ow28     O        0.60713    0.31216    0.53245    1.000
    Ow28     O        0.43784    0.03245    0.64287    1.000
    Ow28     O        0.93784    0.71755    0.60713    1.000
    Ow28     O        0.81216    0.53245    0.10713    1.000
    Ow28     O        0.31216    0.21755    0.14287    1.000
    Ow28     O        0.64287    0.21755    0.81216    1.000
    Ow28     O        0.60713    0.53245    0.31216    1.000
    Ow28     O        0.10713    0.71755    0.43784    1.000
    Ow28     O        0.14287    0.03245    0.93784    1.000
    Ow28     O        0.31216    0.14287    0.21755    1.000
    Ow28     O        0.81216    0.10713    0.53245    1.000
    Ow28     O        0.93784    0.60713    0.71755    1.000
    Ow28     O        0.43784    0.64287    0.03245    1.000
    Ow28     O        0.71755    0.81216    0.14287    1.000
    Ow28     O        0.03245    0.31216    0.10713    1.000
    Ow28     O        0.21755    0.43784    0.60713    1.000
    Ow28     O        0.53245    0.93784    0.64287    1.000
    Ow28     O        0.96755    0.89287    0.68784    1.000
    Ow28     O        0.28245    0.85713    0.18784    1.000
    Ow28     O        0.46755    0.35713    0.06216    1.000
    Ow28     O        0.78245    0.39287    0.56216    1.000
    Ow28     O        0.89287    0.56216    0.28245    1.000
    Ow28     O        0.85713    0.06216    0.96755    1.000
    Ow28     O        0.35713    0.18784    0.78245    1.000
    Ow28     O        0.39287    0.68784    0.46755    1.000
    Ow28     O        0.56216    0.96755    0.35713    1.000
    Ow28     O        0.06216    0.28245    0.39287    1.000
    Ow28     O        0.18784    0.46755    0.89287    1.000
    Ow28     O        0.68784    0.78245    0.85713    1.000
    Ow28     O        0.85713    0.28245    0.18784    1.000
    Ow28     O        0.89287    0.96755    0.68784    1.000
    Ow28     O        0.39287    0.78245    0.56216    1.000
    Ow28     O        0.35713    0.46755    0.06216    1.000
    Ow28     O        0.18784    0.35713    0.78245    1.000
    Ow28     O        0.68784    0.39287    0.46755    1.000
    Ow28     O        0.56216    0.89287    0.28245    1.000
    Ow28     O        0.06216    0.85713    0.96755    1.000
    Ow28     O        0.78245    0.68784    0.85713    1.000
    Ow28     O        0.46755    0.18784    0.89287    1.000
    Ow28     O        0.28245    0.06216    0.39287    1.000
    Ow28     O        0.96755    0.56216    0.35713    1.000
    Ow28     O        0.53245    0.60713    0.31216    1.000
    Ow28     O        0.21755    0.64287    0.81216    1.000
    Ow28     O        0.03245    0.14287    0.93784    1.000
    Ow28     O        0.71755    0.10713    0.43784    1.000
    Ow28     O        0.60713    0.93784    0.71755    1.000
    Ow28     O        0.64287    0.43784    0.03245    1.000
    Ow28     O        0.14287    0.31216    0.21755    1.000
    Ow28     O        0.10713    0.81216    0.53245    1.000
    Ow28     O        0.93784    0.53245    0.64287    1.000
    Ow28     O        0.43784    0.21755    0.60713    1.000
    Ow28     O        0.31216    0.03245    0.10713    1.000
    Ow28     O        0.81216    0.71755    0.14287    1.000
    Ow28     O        0.14287    0.71755    0.81216    1.000
    Ow28     O        0.10713    0.03245    0.31216    1.000
    Ow28     O        0.60713    0.21755    0.43784    1.000
    Ow28     O        0.64287    0.53245    0.93784    1.000
    Ow28     O        0.81216    0.64287    0.21755    1.000
    Ow28     O        0.31216    0.60713    0.53245    1.000
    Ow28     O        0.43784    0.10713    0.71755    1.000
    Ow28     O        0.93784    0.14287    0.03245    1.000
    Ow28     O        0.21755    0.31216    0.14287    1.000
    Ow28     O        0.53245    0.81216    0.10713    1.000
    Ow28     O        0.71755    0.93784    0.60713    1.000
    Ow28     O        0.03245    0.43784    0.64287    1.000
    Ow28     O        0.46755    0.39287    0.68784    1.000
    Ow28     O        0.78245    0.35713    0.18784    1.000
    Ow28     O        0.96755    0.85713    0.06216    1.000
    Ow28     O        0.28245    0.89287    0.56216    1.000
    Ow28     O        0.39287    0.06216    0.28245    1.000
    Ow28     O        0.35713    0.56216    0.96755    1.000
    Ow28     O        0.85713    0.68784    0.78245    1.000
    Ow28     O        0.89287    0.18784    0.46755    1.000
    Ow28     O        0.06216    0.46755    0.35713    1.000
    Ow28     O        0.56216    0.78245    0.39287    1.000
    Ow28     O        0.68784    0.96755    0.89287    1.000
    Ow28     O        0.18784    0.28245    0.85713    1.000
    Ow28     O        0.85713    0.78245    0.68784    1.000
    Ow28     O        0.89287    0.46755    0.18784    1.000
    Ow28     O        0.39287    0.28245    0.06216    1.000
    Ow28     O        0.35713    0.96755    0.56216    1.000
    Ow28     O        0.18784    0.85713    0.28245    1.000
    Ow28     O        0.68784    0.89287    0.96755    1.000
    Ow28     O        0.56216    0.39287    0.78245    1.000
    Ow28     O        0.06216    0.35713    0.46755    1.000
    Ow28     O        0.78245    0.18784    0.35713    1.000
    Ow28     O        0.46755    0.68784    0.39287    1.000
    Ow28     O        0.28245    0.56216    0.89287    1.000
    Ow28     O        0.96755    0.06216    0.85713    1.000
    Ow28     O        0.53245    0.10713    0.81216    1.000
    Ow28     O        0.21755    0.14287    0.31216    1.000
    Ow28     O        0.03245    0.64287    0.43784    1.000
    Ow28     O        0.71755    0.60713    0.93784    1.000
    Ow28     O        0.60713    0.43784    0.21755    1.000
    Ow28     O        0.64287    0.93784    0.53245    1.000
    Ow28     O        0.14287    0.81216    0.71755    1.000
    Ow28     O        0.10713    0.31216    0.03245    1.000
    Ow28     O        0.93784    0.03245    0.14287    1.000
    Ow28     O        0.43784    0.71755    0.10713    1.000
    Ow28     O        0.31216    0.53245    0.60713    1.000
    Ow28     O        0.81216    0.21755    0.64287    1.000
    Ow28     O        0.14287    0.21755    0.31216    1.000
    Ow28     O        0.10713    0.53245    0.81216    1.000
    Ow28     O        0.60713    0.71755    0.93784    1.000
    Ow28     O        0.64287    0.03245    0.43784    1.000
    Ow28     O        0.81216    0.14287    0.71755    1.000
    Ow28     O        0.31216    0.10713    0.03245    1.000
    Ow28     O        0.43784    0.60713    0.21755    1.000
    Ow28     O        0.93784    0.64287    0.53245    1.000
    Ow28     O        0.21755    0.81216    0.64287    1.000
    Ow28     O        0.53245    0.31216    0.60713    1.000
    Ow28     O        0.71755    0.43784    0.10713    1.000
    Ow28     O        0.03245    0.93784    0.14287    1.000
    Ow28     O        0.46755    0.89287    0.18784    1.000
    Ow28     O        0.78245    0.85713    0.68784    1.000
    Ow28     O        0.96755    0.35713    0.56216    1.000
    Ow28     O        0.28245    0.39287    0.06216    1.000
    Ow28     O        0.39287    0.56216    0.78245    1.000
    Ow28     O        0.35713    0.06216    0.46755    1.000
    Ow28     O        0.85713    0.18784    0.28245    1.000
    Ow28     O        0.89287    0.68784    0.96755    1.000
    Ow28     O        0.06216    0.96755    0.85713    1.000
    Ow28     O        0.56216    0.28245    0.89287    1.000
    Ow28     O        0.68784    0.46755    0.39287    1.000
    Ow28     O        0.18784    0.78245    0.35713    1.000
    Ow29     O        0.61395    0.31577    0.91093    1.000
    Ow29     O        0.11395    0.43423    0.33907    1.000
    Ow29     O        0.63605    0.81577    0.83907    1.000
    Ow29     O        0.41093    0.13605    0.93423    1.000
    Ow29     O        0.91093    0.61395    0.31577    1.000
    Ow29     O        0.33907    0.11395    0.43423    1.000
    Ow29     O        0.83907    0.63605    0.81577    1.000
    Ow29     O        0.93423    0.41093    0.13605    1.000
    Ow29     O        0.31577    0.91093    0.61395    1.000
    Ow29     O        0.43423    0.33907    0.11395    1.000
    Ow29     O        0.81577    0.83907    0.63605    1.000
    Ow29     O        0.68423    0.38605    0.08907    1.000
    Ow29     O        0.06577    0.86395    0.58907    1.000
    Ow29     O        0.18423    0.36395    0.16093    1.000
    Ow29     O        0.56577    0.88605    0.66093    1.000
    Ow29     O        0.88605    0.66093    0.56577    1.000
    Ow29     O        0.36395    0.16093    0.18423    1.000
    Ow29     O        0.86395    0.58907    0.06577    1.000
    Ow29     O        0.38605    0.08907    0.68423    1.000
    Ow29     O        0.16093    0.18423    0.36395    1.000
    Ow29     O        0.66093    0.56577    0.88605    1.000
    Ow29     O        0.08907    0.68423    0.38605    1.000
    Ow29     O        0.58907    0.06577    0.86395    1.000
    Ow29     O        0.86395    0.06577    0.58907    1.000
    Ow29     O        0.38605    0.68423    0.08907    1.000
    Ow29     O        0.88605    0.56577    0.66093    1.000
    Ow29     O        0.36395    0.18423    0.16093    1.000
    Ow29     O        0.58907    0.86395    0.06577    1.000
    Ow29     O        0.08907    0.38605    0.68423    1.000
    Ow29     O        0.66093    0.88605    0.56577    1.000
    Ow29     O        0.16093    0.36395    0.18423    1.000
    Ow29     O        0.06577    0.58907    0.86395    1.000
    Ow29     O        0.68423    0.08907    0.38605    1.000
    Ow29     O        0.56577    0.66093    0.88605    1.000
    Ow29     O        0.18423    0.16093    0.36395    1.000
    Ow29     O        0.31577    0.61395    0.91093    1.000
    Ow29     O        0.93423    0.13605    0.41093    1.000
    Ow29     O        0.81577    0.63605    0.83907    1.000
    Ow29     O        0.43423    0.11395    0.33907    1.000
    Ow29     O        0.11395    0.33907    0.43423    1.000
    Ow29     O        0.63605    0.83907    0.81577    1.000
    Ow29     O        0.13605    0.41093    0.93423    1.000
    Ow29     O        0.61395    0.91093    0.31577    1.000
    Ow29     O        0.83907    0.81577    0.63605    1.000
    Ow29     O        0.33907    0.43423    0.11395    1.000
    Ow29     O        0.91093    0.31577    0.61395    1.000
    Ow29     O        0.41093    0.93423    0.13605    1.000
    Ow29     O        0.13605    0.43423    0.91093    1.000
    Ow29     O        0.61395    0.81577    0.41093    1.000
    Ow29     O        0.11395    0.93423    0.83907    1.000
    Ow29     O        0.63605    0.31577    0.33907    1.000
    Ow29     O        0.41093    0.63605    0.43423    1.000
    Ow29     O        0.91093    0.11395    0.81577    1.000
    Ow29     O        0.33907    0.61395    0.93423    1.000
    Ow29     O        0.83907    0.13605    0.31577    1.000
    Ow29     O        0.93423    0.91093    0.63605    1.000
    Ow29     O        0.31577    0.41093    0.11395    1.000
    Ow29     O        0.43423    0.83907    0.61395    1.000
    Ow29     O        0.81577    0.33907    0.13605    1.000
    Ow29     O        0.68423    0.88605    0.58907    1.000
    Ow29     O        0.06577    0.36395    0.08907    1.000
    Ow29     O        0.18423    0.86395    0.66093    1.000
    Ow29     O        0.56577    0.38605    0.16093    1.000
    Ow29     O        0.88605    0.16093    0.06577    1.000
    Ow29     O        0.36395    0.66093    0.68423    1.000
    Ow29     O        0.86395    0.08907    0.56577    1.000
    Ow29     O        0.38605    0.58907    0.18423    1.000
    Ow29     O        0.16093    0.68423    0.86395    1.000
    Ow29     O        0.66093    0.06577    0.38605    1.000
    Ow29     O        0.08907    0.18423    0.88605    1.000
    Ow29     O        0.58907    0.56577    0.36395    1.000
    Ow29     O        0.86395    0.56577    0.08907    1.000
    Ow29     O        0.38605    0.18423    0.58907    1.000
    Ow29     O        0.88605    0.06577    0.16093    1.000
    Ow29     O        0.36395    0.68423    0.66093    1.000
    Ow29     O        0.58907    0.36395    0.56577    1.000
    Ow29     O        0.08907    0.88605    0.18423    1.000
    Ow29     O        0.66093    0.38605    0.06577    1.000
    Ow29     O        0.16093    0.86395    0.68423    1.000
    Ow29     O        0.06577    0.08907    0.36395    1.000
    Ow29     O        0.68423    0.58907    0.88605    1.000
    Ow29     O        0.56577    0.16093    0.38605    1.000
    Ow29     O        0.18423    0.66093    0.86395    1.000
    Ow29     O        0.31577    0.11395    0.41093    1.000
    Ow29     O        0.93423    0.63605    0.91093    1.000
    Ow29     O        0.81577    0.13605    0.33907    1.000
    Ow29     O        0.43423    0.61395    0.83907    1.000
    Ow29     O        0.11395    0.83907    0.93423    1.000
    Ow29     O        0.63605    0.33907    0.31577    1.000
    Ow29     O        0.13605    0.91093    0.43423    1.000
    Ow29     O        0.61395    0.41093    0.81577    1.000
    Ow29     O        0.83907    0.31577    0.13605    1.000
    Ow29     O        0.33907    0.93423    0.61395    1.000
    Ow29     O        0.91093    0.81577    0.11395    1.000
    Ow29     O        0.41093    0.43423    0.63605    1.000
    Ow29     O        0.63605    0.93423    0.91093    1.000
    Ow29     O        0.11395    0.31577    0.41093    1.000
    Ow29     O        0.61395    0.43423    0.83907    1.000
    Ow29     O        0.13605    0.81577    0.33907    1.000
    Ow29     O        0.91093    0.13605    0.43423    1.000
    Ow29     O        0.41093    0.61395    0.81577    1.000
    Ow29     O        0.83907    0.11395    0.93423    1.000
    Ow29     O        0.33907    0.63605    0.31577    1.000
    Ow29     O        0.43423    0.41093    0.63605    1.000
    Ow29     O        0.81577    0.91093    0.11395    1.000
    Ow29     O        0.93423    0.33907    0.61395    1.000
    Ow29     O        0.31577    0.83907    0.13605    1.000
    Ow29     O        0.18423    0.38605    0.58907    1.000
    Ow29     O        0.56577    0.86395    0.08907    1.000
    Ow29     O        0.68423    0.36395    0.66093    1.000
    Ow29     O        0.06577    0.88605    0.16093    1.000
    Ow29     O        0.38605    0.66093    0.06577    1.000
    Ow29     O        0.86395    0.16093    0.68423    1.000
    Ow29     O        0.36395    0.58907    0.56577    1.000
    Ow29     O        0.88605    0.08907    0.18423    1.000
    Ow29     O        0.66093    0.18423    0.86395    1.000
    Ow29     O        0.16093    0.56577    0.38605    1.000
    Ow29     O        0.58907    0.68423    0.88605    1.000
    Ow29     O        0.08907    0.06577    0.36395    1.000
    Ow29     O        0.36395    0.06577    0.08907    1.000
    Ow29     O        0.88605    0.68423    0.58907    1.000
    Ow29     O        0.38605    0.56577    0.16093    1.000
    Ow29     O        0.86395    0.18423    0.66093    1.000
    Ow29     O        0.08907    0.86395    0.56577    1.000
    Ow29     O        0.58907    0.38605    0.18423    1.000
    Ow29     O        0.16093    0.88605    0.06577    1.000
    Ow29     O        0.66093    0.36395    0.68423    1.000
    Ow29     O        0.56577    0.58907    0.36395    1.000
    Ow29     O        0.18423    0.08907    0.88605    1.000
    Ow29     O        0.06577    0.66093    0.38605    1.000
    Ow29     O        0.68423    0.16093    0.86395    1.000
    Ow29     O        0.81577    0.61395    0.41093    1.000
    Ow29     O        0.43423    0.13605    0.91093    1.000
    Ow29     O        0.31577    0.63605    0.33907    1.000
    Ow29     O        0.93423    0.11395    0.83907    1.000
    Ow29     O        0.61395    0.33907    0.93423    1.000
    Ow29     O        0.13605    0.83907    0.31577    1.000
    Ow29     O        0.63605    0.41093    0.43423    1.000
    Ow29     O        0.11395    0.91093    0.81577    1.000
    Ow29     O        0.33907    0.81577    0.13605    1.000
    Ow29     O        0.83907    0.43423    0.61395    1.000
    Ow29     O        0.41093    0.31577    0.11395    1.000
    Ow29     O        0.91093    0.93423    0.63605    1.000
    Ow29     O        0.63605    0.43423    0.41093    1.000
    Ow29     O        0.11395    0.81577    0.91093    1.000
    Ow29     O        0.61395    0.93423    0.33907    1.000
    Ow29     O        0.13605    0.31577    0.83907    1.000
    Ow29     O        0.91093    0.63605    0.93423    1.000
    Ow29     O        0.41093    0.11395    0.31577    1.000
    Ow29     O        0.83907    0.61395    0.43423    1.000
    Ow29     O        0.33907    0.13605    0.81577    1.000
    Ow29     O        0.43423    0.91093    0.13605    1.000
    Ow29     O        0.81577    0.41093    0.61395    1.000
    Ow29     O        0.93423    0.83907    0.11395    1.000
    Ow29     O        0.31577    0.33907    0.63605    1.000
    Ow29     O        0.18423    0.88605    0.08907    1.000
    Ow29     O        0.56577    0.36395    0.58907    1.000
    Ow29     O        0.68423    0.86395    0.16093    1.000
    Ow29     O        0.06577    0.38605    0.66093    1.000
    Ow29     O        0.38605    0.16093    0.56577    1.000
    Ow29     O        0.86395    0.66093    0.18423    1.000
    Ow29     O        0.36395    0.08907    0.06577    1.000
    Ow29     O        0.88605    0.58907    0.68423    1.000
    Ow29     O        0.66093    0.68423    0.36395    1.000
    Ow29     O        0.16093    0.06577    0.88605    1.000
    Ow29     O        0.58907    0.18423    0.38605    1.000
    Ow29     O        0.08907    0.56577    0.86395    1.000
    Ow29     O        0.36395    0.56577    0.58907    1.000
    Ow29     O        0.88605    0.18423    0.08907    1.000
    Ow29     O        0.38605    0.06577    0.66093    1.000
    Ow29     O        0.86395    0.68423    0.16093    1.000
    Ow29     O        0.08907    0.36395    0.06577    1.000
    Ow29     O        0.58907    0.88605    0.68423    1.000
    Ow29     O        0.16093    0.38605    0.56577    1.000
    Ow29     O        0.66093    0.86395    0.18423    1.000
    Ow29     O        0.56577    0.08907    0.86395    1.000
    Ow29     O        0.18423    0.58907    0.38605    1.000
    Ow29     O        0.06577    0.16093    0.88605    1.000
    Ow29     O        0.68423    0.66093    0.36395    1.000
    Ow29     O        0.81577    0.11395    0.91093    1.000
    Ow29     O        0.43423    0.63605    0.41093    1.000
    Ow29     O        0.31577    0.13605    0.83907    1.000
    Ow29     O        0.93423    0.61395    0.33907    1.000
    Ow29     O        0.61395    0.83907    0.43423    1.000
    Ow29     O        0.13605    0.33907    0.81577    1.000
    Ow29     O        0.63605    0.91093    0.93423    1.000
    Ow29     O        0.11395    0.41093    0.31577    1.000
    Ow29     O        0.33907    0.31577    0.63605    1.000
    Ow29     O        0.83907    0.93423    0.11395    1.000
    Ow29     O        0.41093    0.81577    0.61395    1.000
    Ow29     O        0.91093    0.43423    0.13605    1.000
    Ow30     O        0.66538    0.86335    0.00000    0.500
    Ow30     O        0.16538    0.88665    0.25000    0.500
    Ow30     O        0.58462    0.36335    0.75000    0.500
    Ow30     O        0.50000    0.08462    0.38665    0.500
    Ow30     O        0.00000    0.66538    0.86335    0.500
    Ow30     O        0.25000    0.16538    0.88665    0.500
    Ow30     O        0.75000    0.58462    0.36335    0.500
    Ow30     O        0.38665    0.50000    0.08462    0.500
    Ow30     O        0.86335    0.00000    0.66538    0.500
    Ow30     O        0.88665    0.25000    0.16538    0.500
    Ow30     O        0.36335    0.75000    0.58462    0.500
    Ow30     O        0.13665    0.33462    0.00000    0.500
    Ow30     O        0.61335    0.91538    0.50000    0.500
    Ow30     O        0.63665    0.41538    0.25000    0.500
    Ow30     O        0.11335    0.83462    0.75000    0.500
    Ow30     O        0.83462    0.75000    0.11335    0.500
    Ow30     O        0.41538    0.25000    0.63665    0.500
    Ow30     O        0.91538    0.50000    0.61335    0.500
    Ow30     O        0.33462    0.00000    0.13665    0.500
    Ow30     O        0.25000    0.63665    0.41538    0.500
    Ow30     O        0.75000    0.11335    0.83462    0.500
    Ow30     O        0.00000    0.13665    0.33462    0.500
    Ow30     O        0.50000    0.61335    0.91538    0.500
    Ow30     O        0.91538    0.61335    0.50000    0.500
    Ow30     O        0.33462    0.13665    0.00000    0.500
    Ow30     O        0.83462    0.11335    0.75000    0.500
    Ow30     O        0.41538    0.63665    0.25000    0.500
    Ow30     O        0.50000    0.91538    0.61335    0.500
    Ow30     O        0.00000    0.33462    0.13665    0.500
    Ow30     O        0.75000    0.83462    0.11335    0.500
    Ow30     O        0.25000    0.41538    0.63665    0.500
    Ow30     O        0.61335    0.50000    0.91538    0.500
    Ow30     O        0.13665    0.00000    0.33462    0.500
    Ow30     O        0.11335    0.75000    0.83462    0.500
    Ow30     O        0.63665    0.25000    0.41538    0.500
    Ow30     O        0.86335    0.66538    0.00000    0.500
    Ow30     O        0.38665    0.08462    0.50000    0.500
    Ow30     O        0.36335    0.58462    0.75000    0.500
    Ow30     O        0.88665    0.16538    0.25000    0.500
    Ow30     O        0.16538    0.25000    0.88665    0.500
    Ow30     O        0.58462    0.75000    0.36335    0.500
    Ow30     O        0.08462    0.50000    0.38665    0.500
    Ow30     O        0.66538    0.00000    0.86335    0.500
    Ow30     O        0.75000    0.36335    0.58462    0.500
    Ow30     O        0.25000    0.88665    0.16538    0.500
    Ow30     O        0.00000    0.86335    0.66538    0.500
    Ow30     O        0.50000    0.38665    0.08462    0.500
    Ow30     O        0.08462    0.88665    0.00000    0.500
    Ow30     O        0.66538    0.36335    0.50000    0.500
    Ow30     O        0.16538    0.38665    0.75000    0.500
    Ow30     O        0.58462    0.86335    0.25000    0.500
    Ow30     O        0.50000    0.58462    0.88665    0.500
    Ow30     O        0.00000    0.16538    0.36335    0.500
    Ow30     O        0.25000    0.66538    0.38665    0.500
    Ow30     O        0.75000    0.08462    0.86335    0.500
    Ow30     O        0.38665    0.00000    0.58462    0.500
    Ow30     O        0.86335    0.50000    0.16538    0.500
    Ow30     O        0.88665    0.75000    0.66538    0.500
    Ow30     O        0.36335    0.25000    0.08462    0.500
    Ow30     O        0.13665    0.83462    0.50000    0.500
    Ow30     O        0.61335    0.41538    0.00000    0.500
    Ow30     O        0.63665    0.91538    0.75000    0.500
    Ow30     O        0.11335    0.33462    0.25000    0.500
    Ow30     O        0.83462    0.25000    0.61335    0.500
    Ow30     O        0.41538    0.75000    0.13665    0.500
    Ow30     O        0.91538    0.00000    0.11335    0.500
    Ow30     O        0.33462    0.50000    0.63665    0.500
    Ow30     O        0.25000    0.13665    0.91538    0.500
    Ow30     O        0.75000    0.61335    0.33462    0.500
    Ow30     O        0.00000    0.63665    0.83462    0.500
    Ow30     O        0.50000    0.11335    0.41538    0.500
    Ow30     O        0.91538    0.11335    0.00000    0.500
    Ow30     O        0.33462    0.63665    0.50000    0.500
    Ow30     O        0.83462    0.61335    0.25000    0.500
    Ow30     O        0.41538    0.13665    0.75000    0.500
    Ow30     O        0.50000    0.41538    0.11335    0.500
    Ow30     O        0.00000    0.83462    0.63665    0.500
    Ow30     O        0.75000    0.33462    0.61335    0.500
    Ow30     O        0.25000    0.91538    0.13665    0.500
    Ow30     O        0.61335    0.00000    0.41538    0.500
    Ow30     O        0.13665    0.50000    0.83462    0.500
    Ow30     O        0.11335    0.25000    0.33462    0.500
    Ow30     O        0.63665    0.75000    0.91538    0.500
    Ow30     O        0.86335    0.16538    0.50000    0.500
    Ow30     O        0.38665    0.58462    0.00000    0.500
    Ow30     O        0.36335    0.08462    0.25000    0.500
    Ow30     O        0.88665    0.66538    0.75000    0.500
    Ow30     O        0.16538    0.75000    0.38665    0.500
    Ow30     O        0.58462    0.25000    0.86335    0.500
    Ow30     O        0.08462    0.00000    0.88665    0.500
    Ow30     O        0.66538    0.50000    0.36335    0.500
    Ow30     O        0.75000    0.86335    0.08462    0.500
    Ow30     O        0.25000    0.38665    0.66538    0.500
    Ow30     O        0.00000    0.36335    0.16538    0.500
    Ow30     O        0.50000    0.88665    0.58462    0.500
    Ow30     O        0.58462    0.38665    0.00000    0.500
    Ow30     O        0.16538    0.86335    0.50000    0.500
    Ow30     O        0.66538    0.88665    0.75000    0.500
    Ow30     O        0.08462    0.36335    0.25000    0.500
    Ow30     O        0.00000    0.08462    0.88665    0.500
    Ow30     O        0.50000    0.66538    0.36335    0.500
    Ow30     O        0.75000    0.16538    0.38665    0.500
    Ow30     O        0.25000    0.58462    0.86335    0.500
    Ow30     O        0.88665    0.50000    0.58462    0.500
    Ow30     O        0.36335    0.00000    0.16538    0.500
    Ow30     O        0.38665    0.25000    0.66538    0.500
    Ow30     O        0.86335    0.75000    0.08462    0.500
    Ow30     O        0.63665    0.33462    0.50000    0.500
    Ow30     O        0.11335    0.91538    0.00000    0.500
    Ow30     O        0.13665    0.41538    0.75000    0.500
    Ow30     O        0.61335    0.83462    0.25000    0.500
    Ow30     O        0.33462    0.75000    0.61335    0.500
    Ow30     O        0.91538    0.25000    0.13665    0.500
    Ow30     O        0.41538    0.50000    0.11335    0.500
    Ow30     O        0.83462    0.00000    0.63665    0.500
    Ow30     O        0.75000    0.63665    0.91538    0.500
    Ow30     O        0.25000    0.11335    0.33462    0.500
    Ow30     O        0.50000    0.13665    0.83462    0.500
    Ow30     O        0.00000    0.61335    0.41538    0.500
    Ow30     O        0.41538    0.61335    0.00000    0.500
    Ow30     O        0.83462    0.13665    0.50000    0.500
    Ow30     O        0.33462    0.11335    0.25000    0.500
    Ow30     O        0.91538    0.63665    0.75000    0.500
    Ow30     O        0.00000    0.91538    0.11335    0.500
    Ow30     O        0.50000    0.33462    0.63665    0.500
    Ow30     O        0.25000    0.83462    0.61335    0.500
    Ow30     O        0.75000    0.41538    0.13665    0.500
    Ow30     O        0.11335    0.50000    0.41538    0.500
    Ow30     O        0.63665    0.00000    0.83462    0.500
    Ow30     O        0.61335    0.75000    0.33462    0.500
    Ow30     O        0.13665    0.25000    0.91538    0.500
    Ow30     O        0.36335    0.66538    0.50000    0.500
    Ow30     O        0.88665    0.08462    0.00000    0.500
    Ow30     O        0.86335    0.58462    0.25000    0.500
    Ow30     O        0.38665    0.16538    0.75000    0.500
    Ow30     O        0.66538    0.25000    0.38665    0.500
    Ow30     O        0.08462    0.75000    0.86335    0.500
    Ow30     O        0.58462    0.50000    0.88665    0.500
    Ow30     O        0.16538    0.00000    0.36335    0.500
    Ow30     O        0.25000    0.36335    0.08462    0.500
    Ow30     O        0.75000    0.88665    0.66538    0.500
    Ow30     O        0.50000    0.86335    0.16538    0.500
    Ow30     O        0.00000    0.38665    0.58462    0.500
    Ow30     O        0.58462    0.88665    0.50000    0.500
    Ow30     O        0.16538    0.36335    0.00000    0.500
    Ow30     O        0.66538    0.38665    0.25000    0.500
    Ow30     O        0.08462    0.86335    0.75000    0.500
    Ow30     O        0.00000    0.58462    0.38665    0.500
    Ow30     O        0.50000    0.16538    0.86335    0.500
    Ow30     O        0.75000    0.66538    0.88665    0.500
    Ow30     O        0.25000    0.08462    0.36335    0.500
    Ow30     O        0.88665    0.00000    0.08462    0.500
    Ow30     O        0.36335    0.50000    0.66538    0.500
    Ow30     O        0.38665    0.75000    0.16538    0.500
    Ow30     O        0.86335    0.25000    0.58462    0.500
    Ow30     O        0.63665    0.83462    0.00000    0.500
    Ow30     O        0.11335    0.41538    0.50000    0.500
    Ow30     O        0.13665    0.91538    0.25000    0.500
    Ow30     O        0.61335    0.33462    0.75000    0.500
    Ow30     O        0.33462    0.25000    0.11335    0.500
    Ow30     O        0.91538    0.75000    0.63665    0.500
    Ow30     O        0.41538    0.00000    0.61335    0.500
    Ow30     O        0.83462    0.50000    0.13665    0.500
    Ow30     O        0.75000    0.13665    0.41538    0.500
    Ow30     O        0.25000    0.61335    0.83462    0.500
    Ow30     O        0.50000    0.63665    0.33462    0.500
    Ow30     O        0.00000    0.11335    0.91538    0.500
    Ow30     O        0.41538    0.11335    0.50000    0.500
    Ow30     O        0.83462    0.63665    0.00000    0.500
    Ow30     O        0.33462    0.61335    0.75000    0.500
    Ow30     O        0.91538    0.13665    0.25000    0.500
    Ow30     O        0.00000    0.41538    0.61335    0.500
    Ow30     O        0.50000    0.83462    0.13665    0.500
    Ow30     O        0.25000    0.33462    0.11335    0.500
    Ow30     O        0.75000    0.91538    0.63665    0.500
    Ow30     O        0.11335    0.00000    0.91538    0.500
    Ow30     O        0.63665    0.50000    0.33462    0.500
    Ow30     O        0.61335    0.25000    0.83462    0.500
    Ow30     O        0.13665    0.75000    0.41538    0.500
    Ow30     O        0.36335    0.16538    0.00000    0.500
    Ow30     O        0.88665    0.58462    0.50000    0.500
    Ow30     O        0.86335    0.08462    0.75000    0.500
    Ow30     O        0.38665    0.66538    0.25000    0.500
    Ow30     O        0.66538    0.75000    0.88665    0.500
    Ow30     O        0.08462    0.25000    0.36335    0.500
    Ow30     O        0.58462    0.00000    0.38665    0.500
    Ow30     O        0.16538    0.50000    0.86335    0.500
    Ow30     O        0.25000    0.86335    0.58462    0.500
    Ow30     O        0.75000    0.38665    0.16538    0.500
    Ow30     O        0.50000    0.36335    0.66538    0.500
    Ow30     O        0.00000    0.88665    0.08462    0.500
    Ow31     O        0.52213    0.87848    0.44974    1.000
    Ow31     O        0.02213    0.87152    0.80026    1.000
    Ow31     O        0.72787    0.37848    0.30026    1.000
    Ow31     O        0.94974    0.22787    0.37152    1.000
    Ow31     O        0.44974    0.52213    0.87848    1.000
    Ow31     O        0.80026    0.02213    0.87152    1.000
    Ow31     O        0.30026    0.72787    0.37848    1.000
    Ow31     O        0.37152    0.94974    0.22787    1.000
    Ow31     O        0.87848    0.44974    0.52213    1.000
    Ow31     O        0.87152    0.80026    0.02213    1.000
    Ow31     O        0.37848    0.30026    0.72787    1.000
    Ow31     O        0.12152    0.47787    0.55026    1.000
    Ow31     O        0.62848    0.77213    0.05026    1.000
    Ow31     O        0.62152    0.27213    0.69974    1.000
    Ow31     O        0.12848    0.97787    0.19974    1.000
    Ow31     O        0.97787    0.19974    0.12848    1.000
    Ow31     O        0.27213    0.69974    0.62152    1.000
    Ow31     O        0.77213    0.05026    0.62848    1.000
    Ow31     O        0.47787    0.55026    0.12152    1.000
    Ow31     O        0.69974    0.62152    0.27213    1.000
    Ow31     O        0.19974    0.12848    0.97787    1.000
    Ow31     O        0.55026    0.12152    0.47787    1.000
    Ow31     O        0.05026    0.62848    0.77213    1.000
    Ow31     O        0.77213    0.62848    0.05026    1.000
    Ow31     O        0.47787    0.12152    0.55026    1.000
    Ow31     O        0.97787    0.12848    0.19974    1.000
    Ow31     O        0.27213    0.62152    0.69974    1.000
    Ow31     O        0.05026    0.77213    0.62848    1.000
    Ow31     O        0.55026    0.47787    0.12152    1.000
    Ow31     O        0.19974    0.97787    0.12848    1.000
    Ow31     O        0.69974    0.27213    0.62152    1.000
    Ow31     O        0.62848    0.05026    0.77213    1.000
    Ow31     O        0.12152    0.55026    0.47787    1.000
    Ow31     O        0.12848    0.19974    0.97787    1.000
    Ow31     O        0.62152    0.69974    0.27213    1.000
    Ow31     O        0.87848    0.52213    0.44974    1.000
    Ow31     O        0.37152    0.22787    0.94974    1.000
    Ow31     O        0.37848    0.72787    0.30026    1.000
    Ow31     O        0.87152    0.02213    0.80026    1.000
    Ow31     O        0.02213    0.80026    0.87152    1.000
    Ow31     O        0.72787    0.30026    0.37848    1.000
    Ow31     O        0.22787    0.94974    0.37152    1.000
    Ow31     O        0.52213    0.44974    0.87848    1.000
    Ow31     O        0.30026    0.37848    0.72787    1.000
    Ow31     O        0.80026    0.87152    0.02213    1.000
    Ow31     O        0.44974    0.87848    0.52213    1.000
    Ow31     O        0.94974    0.37152    0.22787    1.000
    Ow31     O        0.22787    0.87152    0.44974    1.000
    Ow31     O        0.52213    0.37848    0.94974    1.000
    Ow31     O        0.02213    0.37152    0.30026    1.000
    Ow31     O        0.72787    0.87848    0.80026    1.000
    Ow31     O        0.94974    0.72787    0.87152    1.000
    Ow31     O        0.44974    0.02213    0.37848    1.000
    Ow31     O        0.80026    0.52213    0.37152    1.000
    Ow31     O        0.30026    0.22787    0.87848    1.000
    Ow31     O        0.37152    0.44974    0.72787    1.000
    Ow31     O        0.87848    0.94974    0.02213    1.000
    Ow31     O        0.87152    0.30026    0.52213    1.000
    Ow31     O        0.37848    0.80026    0.22787    1.000
    Ow31     O        0.12152    0.97787    0.05026    1.000
    Ow31     O        0.62848    0.27213    0.55026    1.000
    Ow31     O        0.62152    0.77213    0.19974    1.000
    Ow31     O        0.12848    0.47787    0.69974    1.000
    Ow31     O        0.97787    0.69974    0.62848    1.000
    Ow31     O        0.27213    0.19974    0.12152    1.000
    Ow31     O        0.77213    0.55026    0.12848    1.000
    Ow31     O        0.47787    0.05026    0.62152    1.000
    Ow31     O        0.69974    0.12152    0.77213    1.000
    Ow31     O        0.19974    0.62848    0.47787    1.000
    Ow31     O        0.55026    0.62152    0.97787    1.000
    Ow31     O        0.05026    0.12848    0.27213    1.000
    Ow31     O        0.77213    0.12848    0.55026    1.000
    Ow31     O        0.47787    0.62152    0.05026    1.000
    Ow31     O        0.97787    0.62848    0.69974    1.000
    Ow31     O        0.27213    0.12152    0.19974    1.000
    Ow31     O        0.05026    0.27213    0.12848    1.000
    Ow31     O        0.55026    0.97787    0.62152    1.000
    Ow31     O        0.19974    0.47787    0.62848    1.000
    Ow31     O        0.69974    0.77213    0.12152    1.000
    Ow31     O        0.62848    0.55026    0.27213    1.000
    Ow31     O        0.12152    0.05026    0.97787    1.000
    Ow31     O        0.12848    0.69974    0.47787    1.000
    Ow31     O        0.62152    0.19974    0.77213    1.000
    Ow31     O        0.87848    0.02213    0.94974    1.000
    Ow31     O        0.37152    0.72787    0.44974    1.000
    Ow31     O        0.37848    0.22787    0.80026    1.000
    Ow31     O        0.87152    0.52213    0.30026    1.000
    Ow31     O        0.02213    0.30026    0.37152    1.000
    Ow31     O        0.72787    0.80026    0.87848    1.000
    Ow31     O        0.22787    0.44974    0.87152    1.000
    Ow31     O        0.52213    0.94974    0.37848    1.000
    Ow31     O        0.30026    0.87848    0.22787    1.000
    Ow31     O        0.80026    0.37152    0.52213    1.000
    Ow31     O        0.44974    0.37848    0.02213    1.000
    Ow31     O        0.94974    0.87152    0.72787    1.000
    Ow31     O        0.72787    0.37152    0.44974    1.000
    Ow31     O        0.02213    0.87848    0.94974    1.000
    Ow31     O        0.52213    0.87152    0.30026    1.000
    Ow31     O        0.22787    0.37848    0.80026    1.000
    Ow31     O        0.44974    0.22787    0.87152    1.000
    Ow31     O        0.94974    0.52213    0.37848    1.000
    Ow31     O        0.30026    0.02213    0.37152    1.000
    Ow31     O        0.80026    0.72787    0.87848    1.000
    Ow31     O        0.87152    0.94974    0.72787    1.000
    Ow31     O        0.37848    0.44974    0.02213    1.000
    Ow31     O        0.37152    0.80026    0.52213    1.000
    Ow31     O        0.87848    0.30026    0.22787    1.000
    Ow31     O        0.62152    0.47787    0.05026    1.000
    Ow31     O        0.12848    0.77213    0.55026    1.000
    Ow31     O        0.12152    0.27213    0.19974    1.000
    Ow31     O        0.62848    0.97787    0.69974    1.000
    Ow31     O        0.47787    0.19974    0.62848    1.000
    Ow31     O        0.77213    0.69974    0.12152    1.000
    Ow31     O        0.27213    0.05026    0.12848    1.000
    Ow31     O        0.97787    0.55026    0.62152    1.000
    Ow31     O        0.19974    0.62152    0.77213    1.000
    Ow31     O        0.69974    0.12848    0.47787    1.000
    Ow31     O        0.05026    0.12152    0.97787    1.000
    Ow31     O        0.55026    0.62848    0.27213    1.000
    Ow31     O        0.27213    0.62848    0.55026    1.000
    Ow31     O        0.97787    0.12152    0.05026    1.000
    Ow31     O        0.47787    0.12848    0.69974    1.000
    Ow31     O        0.77213    0.62152    0.19974    1.000
    Ow31     O        0.55026    0.77213    0.12848    1.000
    Ow31     O        0.05026    0.47787    0.62152    1.000
    Ow31     O        0.69974    0.97787    0.62848    1.000
    Ow31     O        0.19974    0.27213    0.12152    1.000
    Ow31     O        0.12848    0.05026    0.27213    1.000
    Ow31     O        0.62152    0.55026    0.97787    1.000
    Ow31     O        0.62848    0.19974    0.47787    1.000
    Ow31     O        0.12152    0.69974    0.77213    1.000
    Ow31     O        0.37848    0.52213    0.94974    1.000
    Ow31     O        0.87152    0.22787    0.44974    1.000
    Ow31     O        0.87848    0.72787    0.80026    1.000
    Ow31     O        0.37152    0.02213    0.30026    1.000
    Ow31     O        0.52213    0.80026    0.37152    1.000
    Ow31     O        0.22787    0.30026    0.87848    1.000
    Ow31     O        0.72787    0.94974    0.87152    1.000
    Ow31     O        0.02213    0.44974    0.37848    1.000
    Ow31     O        0.80026    0.37848    0.22787    1.000
    Ow31     O        0.30026    0.87152    0.52213    1.000
    Ow31     O        0.94974    0.87848    0.02213    1.000
    Ow31     O        0.44974    0.37152    0.72787    1.000
    Ow31     O        0.72787    0.87152    0.94974    1.000
    Ow31     O        0.02213    0.37848    0.44974    1.000
    Ow31     O        0.52213    0.37152    0.80026    1.000
    Ow31     O        0.22787    0.87848    0.30026    1.000
    Ow31     O        0.44974    0.72787    0.37152    1.000
    Ow31     O        0.94974    0.02213    0.87848    1.000
    Ow31     O        0.30026    0.52213    0.87152    1.000
    Ow31     O        0.80026    0.22787    0.37848    1.000
    Ow31     O        0.87152    0.44974    0.22787    1.000
    Ow31     O        0.37848    0.94974    0.52213    1.000
    Ow31     O        0.37152    0.30026    0.02213    1.000
    Ow31     O        0.87848    0.80026    0.72787    1.000
    Ow31     O        0.62152    0.97787    0.55026    1.000
    Ow31     O        0.12848    0.27213    0.05026    1.000
    Ow31     O        0.12152    0.77213    0.69974    1.000
    Ow31     O        0.62848    0.47787    0.19974    1.000
    Ow31     O        0.47787    0.69974    0.12848    1.000
    Ow31     O        0.77213    0.19974    0.62152    1.000
    Ow31     O        0.27213    0.55026    0.62848    1.000
    Ow31     O        0.97787    0.05026    0.12152    1.000
    Ow31     O        0.19974    0.12152    0.27213    1.000
    Ow31     O        0.69974    0.62848    0.97787    1.000
    Ow31     O        0.05026    0.62152    0.47787    1.000
    Ow31     O        0.55026    0.12848    0.77213    1.000
    Ow31     O        0.27213    0.12848    0.05026    1.000
    Ow31     O        0.97787    0.62152    0.55026    1.000
    Ow31     O        0.47787    0.62848    0.19974    1.000
    Ow31     O        0.77213    0.12152    0.69974    1.000
    Ow31     O        0.55026    0.27213    0.62848    1.000
    Ow31     O        0.05026    0.97787    0.12152    1.000
    Ow31     O        0.69974    0.47787    0.12848    1.000
    Ow31     O        0.19974    0.77213    0.62152    1.000
    Ow31     O        0.12848    0.55026    0.77213    1.000
    Ow31     O        0.62152    0.05026    0.47787    1.000
    Ow31     O        0.62848    0.69974    0.97787    1.000
    Ow31     O        0.12152    0.19974    0.27213    1.000
    Ow31     O        0.37848    0.02213    0.44974    1.000
    Ow31     O        0.87152    0.72787    0.94974    1.000
    Ow31     O        0.87848    0.22787    0.30026    1.000
    Ow31     O        0.37152    0.52213    0.80026    1.000
    Ow31     O        0.52213    0.30026    0.87152    1.000
    Ow31     O        0.22787    0.80026    0.37848    1.000
    Ow31     O        0.72787    0.44974    0.37152    1.000
    Ow31     O        0.02213    0.94974    0.87848    1.000
    Ow31     O        0.80026    0.87848    0.72787    1.000
    Ow31     O        0.30026    0.37152    0.02213    1.000
    Ow31     O        0.94974    0.37848    0.52213    1.000
    Ow31     O        0.44974    0.87152    0.22787    1.000
    Ow32     O        0.61141    0.91627    0.41627    1.000
    Ow32     O        0.11141    0.83373    0.83373    1.000
    Ow32     O        0.63859    0.41627    0.33373    1.000
    Ow32     O        0.91627    0.13859    0.33373    1.000
    Ow32     O        0.41627    0.61141    0.91627    1.000
    Ow32     O        0.83373    0.11141    0.83373    1.000
    Ow32     O        0.33373    0.63859    0.41627    1.000
    Ow32     O        0.33373    0.91627    0.13859    1.000
    Ow32     O        0.91627    0.41627    0.61141    1.000
    Ow32     O        0.83373    0.83373    0.11141    1.000
    Ow32     O        0.41627    0.33373    0.63859    1.000
    Ow32     O        0.08373    0.38859    0.58373    1.000
    Ow32     O        0.66627    0.86141    0.08373    1.000
    Ow32     O        0.58373    0.36141    0.66627    1.000
    Ow32     O        0.16627    0.88859    0.16627    1.000
    Ow32     O        0.88859    0.16627    0.16627    1.000
    Ow32     O        0.36141    0.66627    0.58373    1.000
    Ow32     O        0.86141    0.08373    0.66627    1.000
    Ow32     O        0.38859    0.58373    0.08373    1.000
    Ow32     O        0.66627    0.58373    0.36141    1.000
    Ow32     O        0.16627    0.16627    0.88859    1.000
    Ow32     O        0.58373    0.08373    0.38859    1.000
    Ow32     O        0.08373    0.66627    0.86141    1.000
    Ow32     O        0.86141    0.66627    0.08373    1.000
    Ow32     O        0.38859    0.08373    0.58373    1.000
    Ow32     O        0.36141    0.58373    0.66627    1.000
    Ow32     O        0.08373    0.86141    0.66627    1.000
    Ow32     O        0.58373    0.38859    0.08373    1.000
    Ow32     O        0.66627    0.36141    0.58373    1.000
    Ow32     O        0.66627    0.08373    0.86141    1.000
    Ow32     O        0.08373    0.58373    0.38859    1.000
    Ow32     O        0.58373    0.66627    0.36141    1.000
    Ow32     O        0.91627    0.61141    0.41627    1.000
    Ow32     O        0.33373    0.13859    0.91627    1.000
    Ow32     O        0.41627    0.63859    0.33373    1.000
    Ow32     O        0.63859    0.33373    0.41627    1.000
    Ow32     O        0.13859    0.91627    0.33373    1.000
    Ow32     O        0.61141    0.41627    0.91627    1.000
    Ow32     O        0.33373    0.41627    0.63859    1.000
    Ow32     O        0.41627    0.91627    0.61141    1.000
    Ow32     O        0.91627    0.33373    0.13859    1.000
    Ow32     O        0.13859    0.83373    0.41627    1.000
    Ow32     O        0.11141    0.33373    0.33373    1.000
    Ow32     O        0.63859    0.91627    0.83373    1.000
    Ow32     O        0.91627    0.63859    0.83373    1.000
    Ow32     O        0.41627    0.11141    0.41627    1.000
    Ow32     O        0.83373    0.61141    0.33373    1.000
    Ow32     O        0.91627    0.91627    0.11141    1.000
    Ow32     O        0.83373    0.33373    0.61141    1.000
    Ow32     O        0.41627    0.83373    0.13859    1.000
    Ow32     O        0.08373    0.88859    0.08373    1.000
    Ow32     O        0.58373    0.86141    0.16627    1.000
    Ow32     O        0.16627    0.38859    0.66627    1.000
    Ow32     O        0.88859    0.66627    0.66627    1.000
    Ow32     O        0.36141    0.16627    0.08373    1.000
    Ow32     O        0.86141    0.58373    0.16627    1.000
    Ow32     O        0.16627    0.66627    0.38859    1.000
    Ow32     O        0.58373    0.58373    0.88859    1.000
    Ow32     O        0.08373    0.16627    0.36141    1.000
    Ow32     O        0.86141    0.16627    0.58373    1.000
    Ow32     O        0.36141    0.08373    0.16627    1.000
    Ow32     O        0.08373    0.36141    0.16627    1.000
    Ow32     O        0.58373    0.88859    0.58373    1.000
    Ow32     O        0.08373    0.08373    0.88859    1.000
    Ow32     O        0.58373    0.16627    0.86141    1.000
    Ow32     O        0.91627    0.11141    0.91627    1.000
    Ow32     O        0.41627    0.13859    0.83373    1.000
    Ow32     O        0.63859    0.83373    0.91627    1.000
    Ow32     O        0.13859    0.41627    0.83373    1.000
    Ow32     O        0.41627    0.41627    0.11141    1.000
    Ow32     O        0.91627    0.83373    0.63859    1.000
    Ow32     O        0.11141    0.91627    0.91627    1.000
    Ow32     O        0.61141    0.83373    0.33373    1.000
    Ow32     O        0.33373    0.11141    0.33373    1.000
    Ow32     O        0.83373    0.63859    0.91627    1.000
    Ow32     O        0.83373    0.91627    0.63859    1.000
    Ow32     O        0.33373    0.83373    0.61141    1.000
    Ow32     O        0.16627    0.86141    0.58373    1.000
    Ow32     O        0.66627    0.88859    0.66627    1.000
    Ow32     O        0.38859    0.16627    0.66627    1.000
    Ow32     O        0.88859    0.58373    0.58373    1.000
    Ow32     O        0.16627    0.58373    0.86141    1.000
    Ow32     O        0.66627    0.16627    0.38859    1.000
    Ow32     O        0.88859    0.08373    0.08373    1.000
    Ow32     O        0.16627    0.36141    0.08373    1.000
    Ow32     O        0.16627    0.08373    0.36141    1.000
    Ow32     O        0.83373    0.13859    0.41627    1.000
    Ow32     O        0.11141    0.41627    0.41627    1.000
    Ow32     O        0.83373    0.41627    0.13859    1.000
    Ow32     O        0.61141    0.33373    0.83373    1.000
    Ow32     O        0.33373    0.61141    0.83373    1.000
    Ow32     O        0.33373    0.33373    0.11141    1.000
    Ow32     O        0.66627    0.38859    0.16627    1.000
    Ow32     O        0.38859    0.66627    0.16627    1.000
    Ow32     O        0.66627    0.66627    0.88859    1.000
    Ow33     O        0.58951    0.18246    0.92418    1.000
    Ow33     O        0.08951    0.56754    0.32582    1.000
    Ow33     O        0.66049    0.68246    0.82582    1.000
    Ow33     O        0.42418    0.16049    0.06754    1.000
    Ow33     O        0.92418    0.58951    0.18246    1.000
    Ow33     O        0.32582    0.08951    0.56754    1.000
    Ow33     O        0.82582    0.66049    0.68246    1.000
    Ow33     O        0.06754    0.42418    0.16049    1.000
    Ow33     O        0.18246    0.92418    0.58951    1.000
    Ow33     O        0.56754    0.32582    0.08951    1.000
    Ow33     O        0.68246    0.82582    0.66049    1.000
    Ow33     O        0.81754    0.41049    0.07582    1.000
    Ow33     O        0.93246    0.83951    0.57582    1.000
    Ow33     O        0.31754    0.33951    0.17418    1.000
    Ow33     O        0.43246    0.91049    0.67418    1.000
    Ow33     O        0.91049    0.67418    0.43246    1.000
    Ow33     O        0.33951    0.17418    0.31754    1.000
    Ow33     O        0.83951    0.57582    0.93246    1.000
    Ow33     O        0.41049    0.07582    0.81754    1.000
    Ow33     O        0.17418    0.31754    0.33951    1.000
    Ow33     O        0.67418    0.43246    0.91049    1.000
    Ow33     O        0.07582    0.81754    0.41049    1.000
    Ow33     O        0.57582    0.93246    0.83951    1.000
    Ow33     O        0.83951    0.93246    0.57582    1.000
    Ow33     O        0.41049    0.81754    0.07582    1.000
    Ow33     O        0.91049    0.43246    0.67418    1.000
    Ow33     O        0.33951    0.31754    0.17418    1.000
    Ow33     O        0.57582    0.83951    0.93246    1.000
    Ow33     O        0.07582    0.41049    0.81754    1.000
    Ow33     O        0.67418    0.91049    0.43246    1.000
    Ow33     O        0.17418    0.33951    0.31754    1.000
    Ow33     O        0.93246    0.57582    0.83951    1.000
    Ow33     O        0.81754    0.07582    0.41049    1.000
    Ow33     O        0.43246    0.67418    0.91049    1.000
    Ow33     O        0.31754    0.17418    0.33951    1.000
    Ow33     O        0.18246    0.58951    0.92418    1.000
    Ow33     O        0.06754    0.16049    0.42418    1.000
    Ow33     O        0.68246    0.66049    0.82582    1.000
    Ow33     O        0.56754    0.08951    0.32582    1.000
    Ow33     O        0.08951    0.32582    0.56754    1.000
    Ow33     O        0.66049    0.82582    0.68246    1.000
    Ow33     O        0.16049    0.42418    0.06754    1.000
    Ow33     O        0.58951    0.92418    0.18246    1.000
    Ow33     O        0.82582    0.68246    0.66049    1.000
    Ow33     O        0.32582    0.56754    0.08951    1.000
    Ow33     O        0.92418    0.18246    0.58951    1.000
    Ow33     O        0.42418    0.06754    0.16049    1.000
    Ow33     O        0.16049    0.56754    0.92418    1.000
    Ow33     O        0.58951    0.68246    0.42418    1.000
    Ow33     O        0.08951    0.06754    0.82582    1.000
    Ow33     O        0.66049    0.18246    0.32582    1.000
    Ow33     O        0.42418    0.66049    0.56754    1.000
    Ow33     O        0.92418    0.08951    0.68246    1.000
    Ow33     O        0.32582    0.58951    0.06754    1.000
    Ow33     O        0.82582    0.16049    0.18246    1.000
    Ow33     O        0.06754    0.92418    0.66049    1.000
    Ow33     O        0.18246    0.42418    0.08951    1.000
    Ow33     O        0.56754    0.82582    0.58951    1.000
    Ow33     O        0.68246    0.32582    0.16049    1.000
    Ow33     O        0.81754    0.91049    0.57582    1.000
    Ow33     O        0.93246    0.33951    0.07582    1.000
    Ow33     O        0.31754    0.83951    0.67418    1.000
    Ow33     O        0.43246    0.41049    0.17418    1.000
    Ow33     O        0.91049    0.17418    0.93246    1.000
    Ow33     O        0.33951    0.67418    0.81754    1.000
    Ow33     O        0.83951    0.07582    0.43246    1.000
    Ow33     O        0.41049    0.57582    0.31754    1.000
    Ow33     O        0.17418    0.81754    0.83951    1.000
    Ow33     O        0.67418    0.93246    0.41049    1.000
    Ow33     O        0.07582    0.31754    0.91049    1.000
    Ow33     O        0.57582    0.43246    0.33951    1.000
    Ow33     O        0.83951    0.43246    0.07582    1.000
    Ow33     O        0.41049    0.31754    0.57582    1.000
    Ow33     O        0.91049    0.93246    0.17418    1.000
    Ow33     O        0.33951    0.81754    0.67418    1.000
    Ow33     O        0.57582    0.33951    0.43246    1.000
    Ow33     O        0.07582    0.91049    0.31754    1.000
    Ow33     O        0.67418    0.41049    0.93246    1.000
    Ow33     O        0.17418    0.83951    0.81754    1.000
    Ow33     O        0.93246    0.07582    0.33951    1.000
    Ow33     O        0.81754    0.57582    0.91049    1.000
    Ow33     O        0.43246    0.17418    0.41049    1.000
    Ow33     O        0.31754    0.67418    0.83951    1.000
    Ow33     O        0.18246    0.08951    0.42418    1.000
    Ow33     O        0.06754    0.66049    0.92418    1.000
    Ow33     O        0.68246    0.16049    0.32582    1.000
    Ow33     O        0.56754    0.58951    0.82582    1.000
    Ow33     O        0.08951    0.82582    0.06754    1.000
    Ow33     O        0.66049    0.32582    0.18246    1.000
    Ow33     O        0.16049    0.92418    0.56754    1.000
    Ow33     O        0.58951    0.42418    0.68246    1.000
    Ow33     O        0.82582    0.18246    0.16049    1.000
    Ow33     O        0.32582    0.06754    0.58951    1.000
    Ow33     O        0.92418    0.68246    0.08951    1.000
    Ow33     O        0.42418    0.56754    0.66049    1.000
    Ow33     O        0.66049    0.06754    0.92418    1.000
    Ow33     O        0.08951    0.18246    0.42418    1.000
    Ow33     O        0.58951    0.56754    0.82582    1.000
    Ow33     O        0.16049    0.68246    0.32582    1.000
    Ow33     O        0.92418    0.16049    0.56754    1.000
    Ow33     O        0.42418    0.58951    0.68246    1.000
    Ow33     O        0.82582    0.08951    0.06754    1.000
    Ow33     O        0.32582    0.66049    0.18246    1.000
    Ow33     O        0.56754    0.42418    0.66049    1.000
    Ow33     O        0.68246    0.92418    0.08951    1.000
    Ow33     O        0.06754    0.32582    0.58951    1.000
    Ow33     O        0.18246    0.82582    0.16049    1.000
    Ow33     O        0.31754    0.41049    0.57582    1.000
    Ow33     O        0.43246    0.83951    0.07582    1.000
    Ow33     O        0.81754    0.33951    0.67418    1.000
    Ow33     O        0.93246    0.91049    0.17418    1.000
    Ow33     O        0.41049    0.67418    0.93246    1.000
    Ow33     O        0.83951    0.17418    0.81754    1.000
    Ow33     O        0.33951    0.57582    0.43246    1.000
    Ow33     O        0.91049    0.07582    0.31754    1.000
    Ow33     O        0.67418    0.31754    0.83951    1.000
    Ow33     O        0.17418    0.43246    0.41049    1.000
    Ow33     O        0.57582    0.81754    0.91049    1.000
    Ow33     O        0.07582    0.93246    0.33951    1.000
    Ow33     O        0.33951    0.93246    0.07582    1.000
    Ow33     O        0.91049    0.81754    0.57582    1.000
    Ow33     O        0.41049    0.43246    0.17418    1.000
    Ow33     O        0.83951    0.31754    0.67418    1.000
    Ow33     O        0.07582    0.83951    0.43246    1.000
    Ow33     O        0.57582    0.41049    0.31754    1.000
    Ow33     O        0.17418    0.91049    0.93246    1.000
    Ow33     O        0.67418    0.33951    0.81754    1.000
    Ow33     O        0.43246    0.57582    0.33951    1.000
    Ow33     O        0.31754    0.07582    0.91049    1.000
    Ow33     O        0.93246    0.67418    0.41049    1.000
    Ow33     O        0.81754    0.17418    0.83951    1.000
    Ow33     O        0.68246    0.58951    0.42418    1.000
    Ow33     O        0.56754    0.16049    0.92418    1.000
    Ow33     O        0.18246    0.66049    0.32582    1.000
    Ow33     O        0.06754    0.08951    0.82582    1.000
    Ow33     O        0.58951    0.32582    0.06754    1.000
    Ow33     O        0.16049    0.82582    0.18246    1.000
    Ow33     O        0.66049    0.42418    0.56754    1.000
    Ow33     O        0.08951    0.92418    0.68246    1.000
    Ow33     O        0.32582    0.68246    0.16049    1.000
    Ow33     O        0.82582    0.56754    0.58951    1.000
    Ow33     O        0.42418    0.18246    0.08951    1.000
    Ow33     O        0.92418    0.06754    0.66049    1.000
    Ow33     O        0.66049    0.56754    0.42418    1.000
    Ow33     O        0.08951    0.68246    0.92418    1.000
    Ow33     O        0.58951    0.06754    0.32582    1.000
    Ow33     O        0.16049    0.18246    0.82582    1.000
    Ow33     O        0.92418    0.66049    0.06754    1.000
    Ow33     O        0.42418    0.08951    0.18246    1.000
    Ow33     O        0.82582    0.58951    0.56754    1.000
    Ow33     O        0.32582    0.16049    0.68246    1.000
    Ow33     O        0.56754    0.92418    0.16049    1.000
    Ow33     O        0.68246    0.42418    0.58951    1.000
    Ow33     O        0.06754    0.82582    0.08951    1.000
    Ow33     O        0.18246    0.32582    0.66049    1.000
    Ow33     O        0.31754    0.91049    0.07582    1.000
    Ow33     O        0.43246    0.33951    0.57582    1.000
    Ow33     O        0.81754    0.83951    0.17418    1.000
    Ow33     O        0.93246    0.41049    0.67418    1.000
    Ow33     O        0.41049    0.17418    0.43246    1.000
    Ow33     O        0.83951    0.67418    0.31754    1.000
    Ow33     O        0.33951    0.07582    0.93246    1.000
    Ow33     O        0.91049    0.57582    0.81754    1.000
    Ow33     O        0.67418    0.81754    0.33951    1.000
    Ow33     O        0.17418    0.93246    0.91049    1.000
    Ow33     O        0.57582    0.31754    0.41049    1.000
    Ow33     O        0.07582    0.43246    0.83951    1.000
    Ow33     O        0.33951    0.43246    0.57582    1.000
    Ow33     O        0.91049    0.31754    0.07582    1.000
    Ow33     O        0.41049    0.93246    0.67418    1.000
    Ow33     O        0.83951    0.81754    0.17418    1.000
    Ow33     O        0.07582    0.33951    0.93246    1.000
    Ow33     O        0.57582    0.91049    0.81754    1.000
    Ow33     O        0.17418    0.41049    0.43246    1.000
    Ow33     O        0.67418    0.83951    0.31754    1.000
    Ow33     O        0.43246    0.07582    0.83951    1.000
    Ow33     O        0.31754    0.57582    0.41049    1.000
    Ow33     O        0.93246    0.17418    0.91049    1.000
    Ow33     O        0.81754    0.67418    0.33951    1.000
    Ow33     O        0.68246    0.08951    0.92418    1.000
    Ow33     O        0.56754    0.66049    0.42418    1.000
    Ow33     O        0.18246    0.16049    0.82582    1.000
    Ow33     O        0.06754    0.58951    0.32582    1.000
    Ow33     O        0.58951    0.82582    0.56754    1.000
    Ow33     O        0.16049    0.32582    0.68246    1.000
    Ow33     O        0.66049    0.92418    0.06754    1.000
    Ow33     O        0.08951    0.42418    0.18246    1.000
    Ow33     O        0.32582    0.18246    0.66049    1.000
    Ow33     O        0.82582    0.06754    0.08951    1.000
    Ow33     O        0.42418    0.68246    0.58951    1.000
    Ow33     O        0.92418    0.56754    0.16049    1.000
    Ow34     O        0.63534    0.18661    0.94263    1.000
    Ow34     O        0.13534    0.56339    0.30737    1.000
    Ow34     O        0.61466    0.68661    0.80737    1.000
    Ow34     O        0.44263    0.11466    0.06339    1.000
    Ow34     O        0.94263    0.63534    0.18661    1.000
    Ow34     O        0.30737    0.13534    0.56339    1.000
    Ow34     O        0.80737    0.61466    0.68661    1.000
    Ow34     O        0.06339    0.44263    0.11466    1.000
    Ow34     O        0.18661    0.94263    0.63534    1.000
    Ow34     O        0.56339    0.30737    0.13534    1.000
    Ow34     O        0.68661    0.80737    0.61466    1.000
    Ow34     O        0.81339    0.36466    0.05737    1.000
    Ow34     O        0.93661    0.88534    0.55737    1.000
    Ow34     O        0.31339    0.38534    0.19263    1.000
    Ow34     O        0.43661    0.86466    0.69263    1.000
    Ow34     O        0.86466    0.69263    0.43661    1.000
    Ow34     O        0.38534    0.19263    0.31339    1.000
    Ow34     O        0.88534    0.55737    0.93661    1.000
    Ow34     O        0.36466    0.05737    0.81339    1.000
    Ow34     O        0.19263    0.31339    0.38534    1.000
    Ow34     O        0.69263    0.43661    0.86466    1.000
    Ow34     O        0.05737    0.81339    0.36466    1.000
    Ow34     O        0.55737    0.93661    0.88534    1.000
    Ow34     O        0.88534    0.93661    0.55737    1.000
    Ow34     O        0.36466    0.81339    0.05737    1.000
    Ow34     O        0.86466    0.43661    0.69263    1.000
    Ow34     O        0.38534    0.31339    0.19263    1.000
    Ow34     O        0.55737    0.88534    0.93661    1.000
    Ow34     O        0.05737    0.36466    0.81339    1.000
    Ow34     O        0.69263    0.86466    0.43661    1.000
    Ow34     O        0.19263    0.38534    0.31339    1.000
    Ow34     O        0.93661    0.55737    0.88534    1.000
    Ow34     O        0.81339    0.05737    0.36466    1.000
    Ow34     O        0.43661    0.69263    0.86466    1.000
    Ow34     O        0.31339    0.19263    0.38534    1.000
    Ow34     O        0.18661    0.63534    0.94263    1.000
    Ow34     O        0.06339    0.11466    0.44263    1.000
    Ow34     O        0.68661    0.61466    0.80737    1.000
    Ow34     O        0.56339    0.13534    0.30737    1.000
    Ow34     O        0.13534    0.30737    0.56339    1.000
    Ow34     O        0.61466    0.80737    0.68661    1.000
    Ow34     O        0.11466    0.44263    0.06339    1.000
    Ow34     O        0.63534    0.94263    0.18661    1.000
    Ow34     O        0.80737    0.68661    0.61466    1.000
    Ow34     O        0.30737    0.56339    0.13534    1.000
    Ow34     O        0.94263    0.18661    0.63534    1.000
    Ow34     O        0.44263    0.06339    0.11466    1.000
    Ow34     O        0.11466    0.56339    0.94263    1.000
    Ow34     O        0.63534    0.68661    0.44263    1.000
    Ow34     O        0.13534    0.06339    0.80737    1.000
    Ow34     O        0.61466    0.18661    0.30737    1.000
    Ow34     O        0.44263    0.61466    0.56339    1.000
    Ow34     O        0.94263    0.13534    0.68661    1.000
    Ow34     O        0.30737    0.63534    0.06339    1.000
    Ow34     O        0.80737    0.11466    0.18661    1.000
    Ow34     O        0.06339    0.94263    0.61466    1.000
    Ow34     O        0.18661    0.44263    0.13534    1.000
    Ow34     O        0.56339    0.80737    0.63534    1.000
    Ow34     O        0.68661    0.30737    0.11466    1.000
    Ow34     O        0.81339    0.86466    0.55737    1.000
    Ow34     O        0.93661    0.38534    0.05737    1.000
    Ow34     O        0.31339    0.88534    0.69263    1.000
    Ow34     O        0.43661    0.36466    0.19263    1.000
    Ow34     O        0.86466    0.19263    0.93661    1.000
    Ow34     O        0.38534    0.69263    0.81339    1.000
    Ow34     O        0.88534    0.05737    0.43661    1.000
    Ow34     O        0.36466    0.55737    0.31339    1.000
    Ow34     O        0.19263    0.81339    0.88534    1.000
    Ow34     O        0.69263    0.93661    0.36466    1.000
    Ow34     O        0.05737    0.31339    0.86466    1.000
    Ow34     O        0.55737    0.43661    0.38534    1.000
    Ow34     O        0.88534    0.43661    0.05737    1.000
    Ow34     O        0.36466    0.31339    0.55737    1.000
    Ow34     O        0.86466    0.93661    0.19263    1.000
    Ow34     O        0.38534    0.81339    0.69263    1.000
    Ow34     O        0.55737    0.38534    0.43661    1.000
    Ow34     O        0.05737    0.86466    0.31339    1.000
    Ow34     O        0.69263    0.36466    0.93661    1.000
    Ow34     O        0.19263    0.88534    0.81339    1.000
    Ow34     O        0.93661    0.05737    0.38534    1.000
    Ow34     O        0.81339    0.55737    0.86466    1.000
    Ow34     O        0.43661    0.19263    0.36466    1.000
    Ow34     O        0.31339    0.69263    0.88534    1.000
    Ow34     O        0.18661    0.13534    0.44263    1.000
    Ow34     O        0.06339    0.61466    0.94263    1.000
    Ow34     O        0.68661    0.11466    0.30737    1.000
    Ow34     O        0.56339    0.63534    0.80737    1.000
    Ow34     O        0.13534    0.80737    0.06339    1.000
    Ow34     O        0.61466    0.30737    0.18661    1.000
    Ow34     O        0.11466    0.94263    0.56339    1.000
    Ow34     O        0.63534    0.44263    0.68661    1.000
    Ow34     O        0.80737    0.18661    0.11466    1.000
    Ow34     O        0.30737    0.06339    0.63534    1.000
    Ow34     O        0.94263    0.68661    0.13534    1.000
    Ow34     O        0.44263    0.56339    0.61466    1.000
    Ow34     O        0.61466    0.06339    0.94263    1.000
    Ow34     O        0.13534    0.18661    0.44263    1.000
    Ow34     O        0.63534    0.56339    0.80737    1.000
    Ow34     O        0.11466    0.68661    0.30737    1.000
    Ow34     O        0.94263    0.11466    0.56339    1.000
    Ow34     O        0.44263    0.63534    0.68661    1.000
    Ow34     O        0.80737    0.13534    0.06339    1.000
    Ow34     O        0.30737    0.61466    0.18661    1.000
    Ow34     O        0.56339    0.44263    0.61466    1.000
    Ow34     O        0.68661    0.94263    0.13534    1.000
    Ow34     O        0.06339    0.30737    0.63534    1.000
    Ow34     O        0.18661    0.80737    0.11466    1.000
    Ow34     O        0.31339    0.36466    0.55737    1.000
    Ow34     O        0.43661    0.88534    0.05737    1.000
    Ow34     O        0.81339    0.38534    0.69263    1.000
    Ow34     O        0.93661    0.86466    0.19263    1.000
    Ow34     O        0.36466    0.69263    0.93661    1.000
    Ow34     O        0.88534    0.19263    0.81339    1.000
    Ow34     O        0.38534    0.55737    0.43661    1.000
    Ow34     O        0.86466    0.05737    0.31339    1.000
    Ow34     O        0.69263    0.31339    0.88534    1.000
    Ow34     O        0.19263    0.43661    0.36466    1.000
    Ow34     O        0.55737    0.81339    0.86466    1.000
    Ow34     O        0.05737    0.93661    0.38534    1.000
    Ow34     O        0.38534    0.93661    0.05737    1.000
    Ow34     O        0.86466    0.81339    0.55737    1.000
    Ow34     O        0.36466    0.43661    0.19263    1.000
    Ow34     O        0.88534    0.31339    0.69263    1.000
    Ow34     O        0.05737    0.88534    0.43661    1.000
    Ow34     O        0.55737    0.36466    0.31339    1.000
    Ow34     O        0.19263    0.86466    0.93661    1.000
    Ow34     O        0.69263    0.38534    0.81339    1.000
    Ow34     O        0.43661    0.55737    0.38534    1.000
    Ow34     O        0.31339    0.05737    0.86466    1.000
    Ow34     O        0.93661    0.69263    0.36466    1.000
    Ow34     O        0.81339    0.19263    0.88534    1.000
    Ow34     O        0.68661    0.63534    0.44263    1.000
    Ow34     O        0.56339    0.11466    0.94263    1.000
    Ow34     O        0.18661    0.61466    0.30737    1.000
    Ow34     O        0.06339    0.13534    0.80737    1.000
    Ow34     O        0.63534    0.30737    0.06339    1.000
    Ow34     O        0.11466    0.80737    0.18661    1.000
    Ow34     O        0.61466    0.44263    0.56339    1.000
    Ow34     O        0.13534    0.94263    0.68661    1.000
    Ow34     O        0.30737    0.68661    0.11466    1.000
    Ow34     O        0.80737    0.56339    0.63534    1.000
    Ow34     O        0.44263    0.18661    0.13534    1.000
    Ow34     O        0.94263    0.06339    0.61466    1.000
    Ow34     O        0.61466    0.56339    0.44263    1.000
    Ow34     O        0.13534    0.68661    0.94263    1.000
    Ow34     O        0.63534    0.06339    0.30737    1.000
    Ow34     O        0.11466    0.18661    0.80737    1.000
    Ow34     O        0.94263    0.61466    0.06339    1.000
    Ow34     O        0.44263    0.13534    0.18661    1.000
    Ow34     O        0.80737    0.63534    0.56339    1.000
    Ow34     O        0.30737    0.11466    0.68661    1.000
    Ow34     O        0.56339    0.94263    0.11466    1.000
    Ow34     O        0.68661    0.44263    0.63534    1.000
    Ow34     O        0.06339    0.80737    0.13534    1.000
    Ow34     O        0.18661    0.30737    0.61466    1.000
    Ow34     O        0.31339    0.86466    0.05737    1.000
    Ow34     O        0.43661    0.38534    0.55737    1.000
    Ow34     O        0.81339    0.88534    0.19263    1.000
    Ow34     O        0.93661    0.36466    0.69263    1.000
    Ow34     O        0.36466    0.19263    0.43661    1.000
    Ow34     O        0.88534    0.69263    0.31339    1.000
    Ow34     O        0.38534    0.05737    0.93661    1.000
    Ow34     O        0.86466    0.55737    0.81339    1.000
    Ow34     O        0.69263    0.81339    0.38534    1.000
    Ow34     O        0.19263    0.93661    0.86466    1.000
    Ow34     O        0.55737    0.31339    0.36466    1.000
    Ow34     O        0.05737    0.43661    0.88534    1.000
    Ow34     O        0.38534    0.43661    0.55737    1.000
    Ow34     O        0.86466    0.31339    0.05737    1.000
    Ow34     O        0.36466    0.93661    0.69263    1.000
    Ow34     O        0.88534    0.81339    0.19263    1.000
    Ow34     O        0.05737    0.38534    0.93661    1.000
    Ow34     O        0.55737    0.86466    0.81339    1.000
    Ow34     O        0.19263    0.36466    0.43661    1.000
    Ow34     O        0.69263    0.88534    0.31339    1.000
    Ow34     O        0.43661    0.05737    0.88534    1.000
    Ow34     O        0.31339    0.55737    0.36466    1.000
    Ow34     O        0.93661    0.19263    0.86466    1.000
    Ow34     O        0.81339    0.69263    0.38534    1.000
    Ow34     O        0.68661    0.13534    0.94263    1.000
    Ow34     O        0.56339    0.61466    0.44263    1.000
    Ow34     O        0.18661    0.11466    0.80737    1.000
    Ow34     O        0.06339    0.63534    0.30737    1.000
    Ow34     O        0.63534    0.80737    0.56339    1.000
    Ow34     O        0.11466    0.30737    0.68661    1.000
    Ow34     O        0.61466    0.94263    0.06339    1.000
    Ow34     O        0.13534    0.44263    0.18661    1.000
    Ow34     O        0.30737    0.18661    0.61466    1.000
    Ow34     O        0.80737    0.06339    0.13534    1.000
    Ow34     O        0.44263    0.68661    0.63534    1.000
    Ow34     O        0.94263    0.56339    0.11466    1.000
